#======================================================================
# Crystal Data Generated By AuToFF
#----------------------------------------------------------------------

data_AuToFF_phase_1

_cell_length_a                         34.1200
_cell_length_b                         33.6400
_cell_length_c                         9.1600
_cell_angle_alpha                      91.11
_cell_angle_beta                       89.00
_cell_angle_gamma                      60.98
_symmetry_space_group_name_H-M_alt     'P 1'
_symmetry_space_group_IT_number        1

loop_
_space_group_symop_operation_xyz
   'x, y, z'

loop_
   _atom_site_label
   _atom_site_type_symbol
   _atom_site_fract_x
   _atom_site_fract_y
   _atom_site_fract_z
   _atom_site_charge
opls_238-0    N    0.00660030    0.98948009    0.99533972    -0.36240000
opls_238-1    N    0.42147023    0.80266996    0.25376012    -0.36560000
opls_238-2    N    0.62396995    0.77975012    0.14100018    -0.36500000
opls_238-3    N    0.60130996    0.60594009    0.11410035    -0.32280000
opls_238-4    N    0.83349007    0.99963007    0.35197008    -0.36290000
opls_238-5    N    0.81176997    0.18142993    0.08424004    -0.36470000
opls_238-6    N    0.10114012    0.46650013    0.75091982    -0.36560000
opls_238-7    N    0.30814023    0.43402012    0.71574051    -0.36240000
opls_238-8    N    0.28077017    0.26601009    0.68087036    -0.36540000
opls_238-9    N    0.50818022    0.66455000    0.88444018    -0.36410000
opls_238-10    N    0.49175008    0.84317002    0.56859982    -0.36470000
opls_238-11    N    0.68479012    0.64880015    0.55350034    -0.36510000
opls_910-12    H    0.01392006    0.98647014    0.88299053    0.24980000
opls_702-13    H    0.26327014    0.91558014    0.16516021    0.08800000
opls_702-14    H    0.25992025    0.87495992    0.94478018    0.08800000
opls_140-15    H    0.17537014    0.85963014    0.27669992    0.10260000
opls_140-16    H    0.23484025    0.82408999    0.27863023    0.07900000
opls_702-17    H    0.17927031    0.96589998    0.15978986    0.08820000
opls_702-18    H    0.17576024    0.92447001    0.94084964    0.08800000
opls_140-19    H    0.21266009    0.90620020    0.38866021    0.04660000
opls_140-20    H    0.20798017    0.83371012    0.00521960    0.04750000
opls_146-21    H    0.02019002    0.02909005    0.24507973    0.11350000
opls_146-22    H    0.08850019    0.92292992    0.91010994    0.11250000
opls_146-23    H    0.33858019    0.86183003    0.36035006    0.10990000
opls_146-24    H    0.40920005    0.76203020    0.01391966    0.10570000
opls_702-25    H    0.31838022    0.75161011    0.88281028    0.15930000
opls_702-26    H    0.31478022    0.80101001    0.79605985    0.16010000
opls_702-27    H    0.36863039    0.75174989    0.81964964    0.15920000
opls_702-28    H    0.10773018    0.99654983    0.48499010    0.15930000
opls_702-29    H    0.12054998    0.02641010    0.34650031    0.15930000
opls_702-30    H    0.06341008    0.04711015    0.40888970    0.15930000
opls_702-31    H    0.76450997    0.36130004    0.01583031    0.08320000
opls_702-32    H    0.70227010    0.34523011    0.04637993    0.08300000
opls_140-33    H    0.69875031    0.42384988    0.43515047    0.07900000
opls_140-34    H    0.73852996    0.36450003    0.42210038    0.07910000
opls_702-35    H    0.70643002    0.44345992    0.02765033    0.04330000
opls_702-36    H    0.64445011    0.42795014    0.07383034    0.08300000
opls_140-37    H    0.76618010    0.41097005    0.25689975    0.04610000
opls_140-38    H    0.66091009    0.37764999    0.32209011    0.04610000
opls_146-39    H    0.54761994    0.57770020    0.21992995    0.11430000
opls_146-40    H    0.56692001    0.49813001    0.25988971    0.11430000
opls_146-41    H    0.85345006    0.29188988    0.12921949    0.10950000
opls_146-42    H    0.87141010    0.21177008    0.10019052    0.11060000
opls_702-43    H    0.69813024    0.26145992    0.25362029    0.15980000
opls_702-44    H    0.69742020    0.27417990    0.06274006    0.15980000
opls_702-45    H    0.72852001    0.21663006    0.11951003    0.16050000
opls_702-46    H    0.73102003    0.50205018    0.10152000    0.15930000
opls_702-47    H    0.69062000    0.54867993    0.00147040    0.15960000
opls_702-48    H    0.70596014    0.55760004    0.18366040    0.16070000
opls_702-49    H    0.72915018    0.84135015    0.09829953    0.08300000
opls_702-50    H    0.66700025    0.91915991    0.13900978    0.08300000
opls_140-51    H    0.74920018    0.88825005    0.52424961    0.07900000
opls_140-52    H    0.70895022    0.86913017    0.50898955    0.07900000
opls_702-53    H    0.78846008    0.86610022    0.12553037    0.08300000
opls_702-54    H    0.72607010    0.94462016    0.15310969    0.08300000
opls_140-55    H    0.78128997    0.81491013    0.34684006    0.04840000
opls_140-56    H    0.67575998    0.95259017    0.40724998    0.04750000
opls_146-57    H    0.89197011    0.90895013    0.35509987    0.11030000
opls_146-58    H    0.75081022    0.00669015    0.31851024    0.10950000
opls_146-59    H    0.70458011    0.77161995    0.17233962    0.11250000
opls_146-60    H    0.56323004    0.86778020    0.24922001    0.10950000
opls_702-61    H    0.57716017    0.95508020    0.41657053    0.15980000
opls_702-62    H    0.57753009    0.96150997    0.22152052    0.16000000
opls_702-63    H    0.53937019    0.94526997    0.30566006    0.15930000
opls_702-64    H    0.88185011    0.81042997    0.37361972    0.15980000
opls_702-65    H    0.87845993    0.82193015    0.18088019    0.15930000
opls_702-66    H    0.91727018    0.83033016    0.29098991    0.15930000
opls_144-67    H    0.44594005    0.73089997    0.29424970    0.09230000
opls_144-68    H    0.64858020    0.62746991    0.18402964    0.09940000
opls_144-69    H    0.55327019    0.82272005    0.09763971    0.10020000
opls_910-70    H    0.41690030    0.81676996    0.35963015    0.24920000
opls_910-71    H    0.63404015    0.77667016    0.03095054    0.24980000
opls_910-72    H    0.61491995    0.59998016    0.00768957    0.24980000
opls_144-73    H    0.88366023    0.96153007    0.17817972    0.09970000
opls_144-74    H    0.98300002    0.06228986    0.00103016    0.09300000
opls_144-75    H    0.79222998    0.15619016    0.27077025    0.09950000
opls_910-76    H    0.80433018    0.02999007    0.33203007    0.24980000
opls_910-77    H    0.83619001    0.16929990    0.00011033    0.24980000
opls_910-78    H    0.69323016    0.64399993    0.44179022    0.24980000
opls_702-79    H    0.93954999    0.57964015    0.69376969    0.08830000
opls_702-80    H    0.93331000    0.53691014    0.48383978    0.08300000
opls_140-81    H    0.85606026    0.52211002    0.84257960    0.10260000
opls_140-82    H    0.91574023    0.48761012    0.83515003    0.07900000
opls_702-83    H    0.85478022    0.62869994    0.70381015    0.08820000
opls_702-84    H    0.84990998    0.58492015    0.49397965    0.08300000
opls_140-85    H    0.89364011    0.57077010    0.93359049    0.04660000
opls_140-86    H    0.88425016    0.49464009    0.56789958    0.04610000
opls_146-87    H    0.69760013    0.69081996    0.79877998    0.11250000
opls_146-88    H    0.76564026    0.58014987    0.47853060    0.10960000
opls_146-89    H    0.02022003    0.52751003    0.87206957    0.10960000
opls_146-90    H    0.08364003    0.42481008    0.52799990    0.10830000
opls_702-91    H    0.98976005    0.41364010    0.43386032    0.15930000
opls_702-92    H    0.98486019    0.46169008    0.33473054    0.15980000
opls_702-93    H    0.03899013    0.41224016    0.35320015    0.15930000
opls_702-94    H    0.78505024    0.65983014    0.03994992    0.15930000
opls_702-95    H    0.79717026    0.68935005    0.89840026    0.15920000
opls_702-96    H    0.74020002    0.70956012    0.96214971    0.15930000
opls_702-97    H    0.44389016    0.02503986    0.53563048    0.08300000
opls_702-98    H    0.38236015    0.00827006    0.57044055    0.08300000
opls_140-99    H    0.38618017    0.07815000    0.97098960    0.10260000
opls_140-100    H    0.42594991    0.01912011    0.94303012    0.07900000
opls_702-101    H    0.38587000    0.10700010    0.56908049    0.04330000
opls_702-102    H    0.32532008    0.08959002    0.61814013    0.04330000
opls_140-103    H    0.45007033    0.06945983    0.78366958    0.04600000
opls_140-104    H    0.34645006    0.03413995    0.85528012    0.04750000
opls_146-105    H    0.22922015    0.23516012    0.78580964    0.10970000
opls_146-106    H    0.25060019    0.15470992    0.81977964    0.11430000
opls_146-107    H    0.53503028    0.95262009    0.62487055    0.11280000
opls_146-108    H    0.55161014    0.87359015    0.57385984    0.11330000
opls_702-109    H    0.38428009    0.91623002    0.76753012    0.15930000
opls_702-110    H    0.37448039    0.94030989    0.58874957    0.15940000
opls_702-111    H    0.40793010    0.88038002    0.60587003    0.16070000
opls_702-112    H    0.41174005    0.16492013    0.66010994    0.15930000
opls_702-113    H    0.37022013    0.21175014    0.56339005    0.15970000
opls_702-114    H    0.38513994    0.21989009    0.74685054    0.09770000
opls_702-115    H    0.41541019    0.49432017    0.67043007    0.08300000
opls_702-116    H    0.35403021    0.57312015    0.66953974    0.08300000
opls_140-117    H    0.41972016    0.55805002    0.08522978    0.10260000
opls_140-118    H    0.38006017    0.53825009    0.06432954    0.10260000
opls_702-119    H    0.47259035    0.52147985    0.70318966    0.08800000
opls_702-120    H    0.41071017    0.60007007    0.69591958    0.08300000
opls_140-121    H    0.45774015    0.47889003    0.93729053    0.04750000
opls_140-122    H    0.35151029    0.61685991    0.93194967    0.04600000
opls_146-123    H    0.56835033    0.57437984    0.90556000    0.10880000
opls_146-124    H    0.42726019    0.66824998    0.85279049    0.11230000
opls_146-125    H    0.38695031    0.42839994    0.76733020    0.11250000
opls_146-126    H    0.24505031    0.52681992    0.75849031    0.11550000
opls_702-127    H    0.25061012    0.62171000    0.88874979    0.15920000
opls_702-128    H    0.26583017    0.61661994    0.69656957    0.15930000
opls_702-129    H    0.22174023    0.60544991    0.75753007    0.15930000
opls_702-130    H    0.56015023    0.47709001    0.97628021    0.15980000
opls_702-131    H    0.55904024    0.48044006    0.77949980    0.15940000
opls_702-132    H    0.59564028    0.49456993    0.88100997    0.15960000
opls_144-133    H    0.12136023    0.39673990    0.81081958    0.09370000
opls_144-134    H    0.32557996    0.28825009    0.77251048    0.08950000
opls_144-135    H    0.24240002    0.47435997    0.62327998    0.09970000
opls_910-136    H    0.09846022    0.48416986    0.84913961    0.24920000
opls_910-137    H    0.32501003    0.42265995    0.61435051    0.24980000
opls_910-138    H    0.29441000    0.26157992    0.57494024    0.24980000
opls_144-139    H    0.56212017    0.62317017    0.72522056    0.09930000
opls_144-140    H    0.66316013    0.72122001    0.55222985    0.09200000
opls_144-141    H    0.46443025    0.82094992    0.74343017    0.10020000
opls_910-142    H    0.47868022    0.69336998    0.85616061    0.24980000
opls_910-143    H    0.51893020    0.82887005    0.49402991    0.24990000
opls_515-144    C    0.25744018    0.88638012    0.18630953    -0.05850000
opls_137-145    C    0.21323022    0.89774016    0.27060966    -0.00060000
opls_137-146    C    0.21072025    0.86016993    0.07149037    -0.00130000
opls_515-147    C    0.25568019    0.86087000    0.04910989    -0.06050000
opls_136-148    C    0.20777999    0.85628021    0.23618958    -0.19830000
opls_515-149    C    0.17548016    0.93556015    0.18251991    -0.06050000
opls_515-150    C    0.17347995    0.90969015    0.04618985    -0.06050000
opls_700-151    C    0.12824016    0.94617010    0.21869005    0.03500000
opls_700-152    C    0.09116032    0.98672995    0.26727995    0.09880000
opls_145-153    C    0.04986001    0.99957017    0.20087044    -0.22730000
opls_916-154    C    0.04781021    0.97623006    0.07170995    0.17490000
opls_145-155    C    0.08763006    0.93861023    0.01525023    -0.21840000
opls_700-156    C    0.12647017    0.92249996    0.09508999    0.04750000
opls_145-157    C    0.33905013    0.83888992    0.27496952    -0.21350000
opls_700-158    C    0.29886002    0.84366003    0.22425049    0.05100000
opls_700-159    C    0.29771007    0.82036990    0.09803954    0.03890000
opls_700-160    C    0.33701006    0.79230018    0.01679055    0.09220000
opls_145-161    C    0.37830021    0.78405994    0.07437000    -0.22540000
opls_916-162    C    0.37972009    0.80667006    0.20512980    0.16740000
opls_148-163    C    0.33470020    0.77301992    0.87029985    -0.47500000
opls_148-164    C    0.09583991    0.01596001    0.38368968    -0.47430000
opls_515-165    C    0.75527012    0.35919992    0.13146988    -0.05870000
opls_137-166    C    0.73935016    0.40279989    0.22824002    -0.00310000
opls_137-167    C    0.68450990    0.38587015    0.26221002    -0.00040000
opls_515-168    C    0.71710006    0.34818997    0.15059056    -0.05100000
opls_136-169    C    0.71604000    0.39424017    0.35736009    -0.19700000
opls_515-170    C    0.69975000    0.44045000    0.14520055    -0.06350000
opls_515-171    C    0.66173012    0.42978991    0.17361994    -0.05850000
opls_700-172    C    0.67194006    0.48518993    0.22535056    0.03900000
opls_700-173    C    0.66205007    0.52841018    0.17870954    0.04820000
opls_916-174    C    0.61619013    0.56325987    0.18383956    0.19460000
opls_145-175    C    0.58256998    0.55233999    0.22590005    -0.19420000
opls_145-176    C    0.59305012    0.50749996    0.25276055    -0.14210000
opls_700-177    C    0.63785001    0.47465010    0.25647042    0.05090000
opls_145-178    C    0.82837003    0.28201985    0.15506950    -0.13960000
opls_700-179    C    0.78510995    0.31445012    0.19833056    0.04750000
opls_700-180    C    0.75065014    0.30344995    0.21055041    0.03840000
opls_700-181    C    0.75814989    0.25986007    0.17066057    0.05000000
opls_916-182    C    0.80302010    0.22528004    0.13975045    0.17310000
opls_145-183    C    0.83778999    0.23687003    0.13463026    -0.19710000
opls_148-184    C    0.71851986    0.25237016    0.15036989    -0.47050000
opls_148-185    C    0.69923017    0.53480012    0.11224978    -0.47110000
opls_515-186    C    0.71891008    0.85159016    0.21498018    -0.06050000
opls_137-187    C    0.75586027    0.84965002    0.31689018    -0.00130000
opls_137-188    C    0.70093009    0.92107990    0.34826021    -0.00040000
opls_515-189    C    0.68088007    0.90026021    0.24046970    -0.05850000
opls_136-190    C    0.72880997    0.88129020    0.44495060    -0.19780000
opls_515-191    C    0.77535011    0.87715019    0.23966021    -0.06050000
opls_515-192    C    0.73706019    0.92624995    0.25699042    -0.05100000
opls_700-193    C    0.80260020    0.89195997    0.33013035    0.03880000
opls_700-194    C    0.84751005    0.88101997    0.32348951    0.09810000
opls_145-195    C    0.85735005    0.91673022    0.34760038    -0.22570000
opls_916-196    C    0.82280001    0.96292016    0.34535982    0.17250000
opls_145-197    C    0.77769017    0.97253998    0.33422038    -0.23910000
opls_700-198    C    0.76839022    0.93665994    0.34153962    0.04560000
opls_145-199    C    0.67794027    0.80327989    0.21871955    -0.22280000
opls_700-200    C    0.68788013    0.83584020    0.27647051    0.05230000
opls_700-201    C    0.65388028    0.88020002    0.30527990    0.03490000
opls_700-202    C    0.60894019    0.89262002    0.29027000    0.09830000
opls_145-203    C    0.59827019    0.85825005    0.25363012    -0.22550000
opls_916-204    C    0.63272011    0.81363002    0.21005991    0.17280000
opls_148-205    C    0.57355009    0.94140997    0.30943985    -0.47370000
opls_148-206    C    0.88346998    0.83317009    0.29040983    -0.47620000
opls_280-207    C    0.59618005    0.71473001    0.23233988    0.32300000
opls_145-208    C    0.56374003    0.76206004    0.19356978    -0.11820000
opls_280-209    C    0.51507012    0.77605019    0.19624949    0.26530000
opls_145-210    C    0.49949022    0.74271009    0.23266980    -0.19970000
opls_280-211    C    0.53366028    0.69363989    0.23653042    0.14470000
opls_145-212    C    0.58239026    0.67919994    0.22396974    -0.12180000
opls_142-213    C    0.45565010    0.75587014    0.26121045    0.04120000
opls_142-214    C    0.61364011    0.63591000    0.18872051    0.04520000
opls_142-215    C    0.57750016    0.79110005    0.14485971    0.04480000
opls_280-216    C    0.90046020    0.09691992    0.11945977    0.28960000
opls_145-217    C    0.85823010    0.10891985    0.20360041    -0.11820000
opls_280-218    C    0.85670000    0.07171997    0.28343034    0.32160000
opls_145-219    C    0.87973016    0.02503992    0.21490044    -0.19970000
opls_280-220    C    0.91716983    0.01427014    0.10695043    0.26440000
opls_145-221    C    0.93221012    0.04842989    0.07944977    -0.15180000
opls_142-222    C    0.86657006    0.99359998    0.24023046    0.04410000
opls_142-223    C    0.97356005    0.03636013    0.02290047    0.04020000
opls_142-224    C    0.82072016    0.15008988    0.20044003    0.05090000
opls_515-225    C    0.93496027    0.55017992    0.72285983    -0.06050000
opls_137-226    C    0.89236010    0.56135004    0.81762975    -0.00130000
opls_137-227    C    0.88750020    0.52185004    0.62777967    -0.00160000
opls_515-228    C    0.93122014    0.52349008    0.59213062    -0.05950000
opls_136-229    C    0.88747021    0.51914007    0.79365979    -0.20060000
opls_515-230    C    0.85240016    0.59799001    0.73303030    -0.05100000
opls_515-231    C    0.84949011    0.57072008    0.60238957    -0.05370000
opls_700-232    C    0.80586029    0.60758998    0.77798024    0.03720000
opls_700-233    C    0.76854004    0.64845006    0.82390026    0.09230000
opls_145-234    C    0.72729018    0.66066013    0.75787965    -0.22730000
opls_916-235    C    0.72536018    0.63583000    0.63258961    0.17630000
opls_145-236    C    0.76480024    0.59717998    0.58094967    -0.19350000
opls_700-237    C    0.80370004    0.58242001    0.65877063    0.04560000
opls_145-238    C    0.01892020    0.50400990    0.79247014    -0.21840000
opls_700-239    C    0.97774026    0.50804004    0.75612959    0.05280000
opls_700-240    C    0.97422028    0.48373995    0.63646990    0.03490000
opls_700-241    C    0.01163017    0.45508999    0.54871007    0.09730000
opls_145-242    C    0.05397027    0.44745995    0.59294994    -0.22530000
opls_916-243    C    0.05805017    0.47130006    0.71600051    0.15950000
opls_148-244    C    0.00613012    0.43444008    0.40941953    -0.47190000
opls_148-245    C    0.77287017    0.67861996    0.93765977    -0.47430000
opls_515-246    C    0.43696021    0.02026986    0.65131047    -0.05840000
opls_137-247    C    0.42277017    0.06179987    0.75706033    -0.00060000
opls_137-248    C    0.36879005    0.04381011    0.79435020    -0.00310000
opls_515-249    C    0.39919022    0.00881983    0.67288037    -0.06350000
opls_136-250    C    0.40207024    0.05024982    0.88660973    -0.19540000
opls_515-251    C    0.38140024    0.10126983    0.68607029    -0.06120000
opls_515-252    C    0.34422002    0.08952001    0.71608025    -0.05870000
opls_700-253    C    0.35451022    0.14422993    0.77658959    0.03900000
opls_700-254    C    0.34322018    0.18848983    0.73685050    0.04800000
opls_916-255    C    0.29702993    0.22250015    0.74616013    0.17230000
opls_145-256    C    0.26442028    0.21019989    0.78796062    -0.18380000
opls_145-257    C    0.27615004    0.16486002    0.81137999    -0.13970000
opls_700-258    C    0.32125001    0.13249999    0.80857028    0.04980000
opls_145-259    C    0.51022019    0.94237997    0.64984007    -0.13970000
opls_700-260    C    0.46809012    0.97387011    0.70583988    0.05610000
opls_700-261    C    0.43374004    0.96277010    0.72046961    0.03870000
opls_700-262    C    0.43999015    0.92035002    0.67142963    0.05590000
opls_916-263    C    0.48402015    0.88644006    0.62684019    0.17290000
opls_145-264    C    0.51879011    0.89797990    0.61769005    -0.19850000
opls_148-265    C    0.39962014    0.91367999    0.65750997    -0.47110000
opls_148-266    C    0.37933999    0.19698009    0.67283995    -0.47240000
opls_515-267    C    0.40085999    0.50949016    0.78039996    -0.05100000
opls_137-268    C    0.43376028    0.51194985    0.89132026    -0.00130000
opls_137-269    C    0.37855037    0.58354990    0.88852038    -0.00070000
opls_515-270    C    0.36293009    0.55864007    0.77994988    -0.05950000
opls_136-271    C    0.40232007    0.54801018    0.00286980    -0.20140000
opls_515-272    C    0.45598017    0.53655994    0.81112000    -0.06050000
opls_515-273    C    0.41772033    0.58552998    0.80662030    -0.05830000
opls_700-274    C    0.48047019    0.55458992    0.90254054    0.03490000
opls_700-275    C    0.52516008    0.54467003    0.89651036    0.09790000
opls_145-276    C    0.53398023    0.58145006    0.90210029    -0.22530000
opls_916-277    C    0.49892011    0.62689990    0.88829971    0.17630000
opls_145-278    C    0.45438026    0.63507998    0.87776984    -0.22860000
opls_700-279    C    0.44575028    0.59913988    0.89604062    0.04570000
opls_145-280    C    0.35900017    0.46194010    0.79158965    -0.22220000
opls_700-281    C    0.36691999    0.49698016    0.83818042    0.05090000
opls_700-282    C    0.33267024    0.54194006    0.84048980    0.03880000
opls_700-283    C    0.28919008    0.55329004    0.80358009    0.09830000
opls_145-284    C    0.27945013    0.51764010    0.77842049    -0.22570000
opls_916-285    C    0.31461002    0.47146001    0.76653055    0.17490000
opls_148-286    C    0.25474029    0.60203985    0.78553981    -0.47420000
opls_148-287    C    0.56222017    0.49644017    0.88247054    -0.47500000
opls_280-288    C    0.27178018    0.37594012    0.80987026    0.31570000
opls_145-289    C    0.24421998    0.42045008    0.74090011    -0.11600000
opls_280-290    C    0.19654006    0.43415012    0.71140031    0.17380000
opls_145-291    C    0.17782017    0.40386007    0.75321063    -0.15670000
opls_280-292    C    0.21010016    0.35509994    0.77651967    0.25500000
opls_145-293    C    0.25873011    0.34014996    0.78946052    -0.12770000
opls_142-294    C    0.13321011    0.41956993    0.77224065    0.04040000
opls_142-295    C    0.29083006    0.29669004    0.76227010    0.04490000
opls_142-296    C    0.26214022    0.44602999    0.69251996    0.04560000
opls_280-297    C    0.57716020    0.75882012    0.63938012    0.31630000
opls_145-298    C    0.53207015    0.77262988    0.70517022    -0.12150000
opls_280-299    C    0.52713030    0.73787008    0.78863028    0.30140000
opls_145-300    C    0.55347004    0.68917017    0.73849023    -0.19960000
opls_280-301    C    0.59310012    0.67649987    0.63885029    0.25660000
opls_145-302    C    0.60953011    0.70969992    0.61457009    -0.12650000
opls_142-303    C    0.54210014    0.65702997    0.77417970    0.05450000
opls_142-304    C    0.65246998    0.69616014    0.57310060    0.04550000
opls_142-305    C    0.49538013    0.81342996    0.68512971    0.04110000
opls_281-306    O    0.52164000    0.66515012    0.25312979    -0.37190000
opls_281-307    O    0.63480022    0.70433994    0.26028954    -0.37900000
opls_281-308    O    0.48787024    0.81515990    0.16803001    -0.40150000
opls_281-309    O    0.93525999    0.97762003    0.04012034    -0.36820000
opls_281-310    O    0.91039005    0.12633000    0.09145004    -0.41620000
opls_281-311    O    0.83613012    0.07974991    0.40048023    -0.37460000
opls_281-312    O    0.19661021    0.32758999    0.78771046    -0.37440000
opls_281-313    O    0.30558010    0.36806984    0.87545062    -0.36810000
opls_281-314    O    0.17290028    0.47014993    0.65302995    -0.39910000
opls_281-315    O    0.61198022    0.63907011    0.57683997    -0.39900000
opls_281-316    O    0.58847008    0.78739011    0.61383052    -0.37940000
opls_281-317    O    0.50080021    0.74962995    0.89309982    -0.41640000
