#======================================================================
# Crystal Data Generated By AuToFF
#----------------------------------------------------------------------

data_AuToFF_phase_1

_cell_length_a                         26.1070
_cell_length_b                         26.1070
_cell_length_c                         4.4948
_cell_angle_alpha                      90.00
_cell_angle_beta                       90.00
_cell_angle_gamma                      120.00
_symmetry_space_group_name_H-M_alt     'P 1'
_symmetry_space_group_IT_number        1

loop_
_space_group_symop_operation_xyz
   'x, y, z'

loop_
   _atom_site_label
   _atom_site_type_symbol
   _atom_site_fract_x
   _atom_site_fract_y
   _atom_site_fract_z
   _atom_site_charge
opls_145-0    C    0.60916998    0.32545989    0.63189908    0.03060000
opls_145-1    C    0.47433992    0.33689986    0.52918039    0.18100000
opls_145-2    C    0.45979994    0.37585988    0.39149907    -0.21320000
opls_145-3    C    0.40312991    0.36870973    0.42663077    0.21860000
opls_145-4    C    0.36126007    0.32273004    0.60470989    -0.20790000
opls_700-5    C    0.37518980    0.28285978    0.74333897    -0.11980000
opls_145-6    C    0.43185983    0.29000992    0.70099893    -0.20610000
opls_700-7    C    0.33341015    0.47737991    0.06257898    -0.11290000
opls_700-8    C    0.38946996    0.48476978    0.98015040    0.04510000
opls_145-9    C    0.42675986    0.53251998    0.79557044    -0.11560000
opls_145-10    C    0.41134986    0.57441994    0.70810937    -0.11140000
opls_700-11    C    0.35902985    0.57107000    0.81162899    0.07860000
opls_145-12    C    0.32071996    0.52239982    0.98827089    -0.15120000
opls_142-13    C    0.41136992    0.44475002    0.07789891    0.07880000
opls_700-14    C    0.34578995    0.61976007    0.75505918    0.07160000
opls_166-15    C    0.61683021    0.27597014    0.63886936    0.15810000
opls_145-16    C    0.39187991    0.67889982    0.74830916    -0.15880000
opls_725-17    C    0.76557983    0.09631997    0.94306977    0.73820000
opls_725-18    C    0.28580996    0.42208991    0.21851028    0.73120000
opls_145-19    C    0.67454004    0.28370987    0.63189908    0.03060000
opls_145-20    C    0.66310013    0.13744016    0.52918039    0.18100000
opls_145-21    C    0.62413998    0.08394013    0.39149907    -0.21320000
opls_145-22    C    0.63129006    0.03441986    0.42663077    0.21860000
opls_145-23    C    0.67727019    0.03853011    0.60470989    -0.20790000
opls_700-24    C    0.71713985    0.09233002    0.74333897    -0.11980000
opls_145-25    C    0.70998993    0.14184985    0.70099893    -0.20610000
opls_700-26    C    0.52261979    0.85602979    0.06257898    -0.11290000
opls_700-27    C    0.51523005    0.90469996    0.98015040    0.04510000
opls_145-28    C    0.46747990    0.89423968    0.79557044    -0.11560000
opls_145-29    C    0.42557981    0.83692971    0.70810937    -0.11140000
opls_700-30    C    0.42892984    0.78795966    0.81162899    0.07860000
opls_145-31    C    0.47759987    0.79831999    0.98827089    -0.15120000
opls_142-32    C    0.55525008    0.96661998    0.07789891    0.07880000
opls_700-33    C    0.38023984    0.72602992    0.75505918    0.07160000
opls_166-34    C    0.72403005    0.34085972    0.63886936    0.15810000
opls_145-35    C    0.32109987    0.71298000    0.74830916    -0.15880000
opls_725-36    C    0.90368006    0.66925999    0.94306977    0.73820000
opls_725-37    C    0.57791009    0.86371998    0.21851028    0.73120000
opls_145-38    C    0.71628976    0.39082980    0.63189908    0.03060000
opls_145-39    C    0.86255995    0.52565998    0.52918039    0.18100000
opls_145-40    C    0.91606009    0.54020000    0.39149907    -0.21320000
opls_145-41    C    0.96557981    0.59686996    0.42663077    0.21860000
opls_145-42    C    0.96146974    0.63873985    0.60470989    -0.20790000
opls_700-43    C    0.90766975    0.62480976    0.74333897    -0.11980000
opls_145-44    C    0.85815003    0.56813979    0.70099893    -0.20610000
opls_700-45    C    0.14396984    0.66658985    0.06257898    -0.11290000
opls_700-46    C    0.09529976    0.61052981    0.98015040    0.04510000
opls_145-47    C    0.10576003    0.57323990    0.79557044    -0.11560000
opls_145-48    C    0.16307012    0.58864991    0.70810937    -0.11140000
opls_700-49    C    0.21204009    0.64096990    0.81162899    0.07860000
opls_145-50    C    0.20167994    0.67927975    0.98827089    -0.15120000
opls_142-51    C    0.03338000    0.58863000    0.07789891    0.07880000
opls_700-52    C    0.27396983    0.65421001    0.75505918    0.07160000
opls_166-53    C    0.65914013    0.38317013    0.63886936    0.15810000
opls_145-54    C    0.28702000    0.60811975    0.74830916    -0.15880000
opls_725-55    C    0.33074011    0.23442004    0.94306977    0.73820000
opls_725-56    C    0.13627973    0.71418967    0.21851028    0.73120000
opls_750-57    N    0.54970975    0.31505976    0.63892943    -0.12430000
opls_750-58    N    0.53362986    0.34775997    0.50634066    -0.12040000
opls_750-59    N    0.38717015    0.40915012    0.30088992    -0.31150000
opls_750-60    N    0.68493983    0.23465003    0.63892943    -0.12430000
opls_750-61    N    0.65224025    0.18587017    0.50634066    -0.12040000
opls_750-62    N    0.59084997    0.97801969    0.30088992    -0.31150000
opls_750-63    N    0.76534981    0.45028977    0.63892943    -0.12430000
opls_750-64    N    0.81412989    0.46636986    0.50634066    -0.12040000
opls_750-65    N    0.02198005    0.61282975    0.30088992    -0.31150000
opls_167-66    O    0.56597009    0.22019007    0.67021892    -0.47120000
opls_167-67    O    0.77980989    0.34577982    0.67021892    -0.47120000
opls_167-68    O    0.65422002    0.43403011    0.67021892    -0.47120000
opls_726-69    F    0.78056004    0.14092014    0.15006897    -0.21190000
opls_726-70    F    0.74479005    0.04381996    0.09632909    -0.20710000
opls_726-71    F    0.81440014    0.10757992    0.77750067    -0.20140000
opls_726-72    F    0.23189998    0.42042997    0.21513082    -0.21370000
opls_726-73    F    0.27888995    0.37122993    0.08557889    -0.21200000
opls_726-74    F    0.30142996    0.42338008    0.51244994    -0.20680000
opls_726-75    F    0.85907993    0.63963992    0.15006897    -0.21190000
opls_726-76    F    0.95617998    0.70096991    0.09632909    -0.20710000
opls_726-77    F    0.89241970    0.70681971    0.77750067    -0.20140000
opls_726-78    F    0.57956992    0.81146987    0.21513082    -0.21370000
opls_726-79    F    0.62876996    0.90765980    0.08557889    -0.21200000
opls_726-80    F    0.57661985    0.87804990    0.51244994    -0.20680000
opls_726-81    F    0.36036003    0.21943994    0.15006897    -0.21190000
opls_726-82    F    0.29902997    0.25521013    0.09632909    -0.20710000
opls_726-83    F    0.29317994    0.18559993    0.77750067    -0.20140000
opls_726-84    F    0.18852988    0.76809972    0.21513082    -0.21370000
opls_726-85    F    0.09233987    0.72110983    0.08557889    -0.21200000
opls_726-86    F    0.12195019    0.69857002    0.51244994    -0.20680000
opls_146-87    H    0.49359997    0.41243991    0.26586945    0.13500000
opls_146-88    H    0.31750008    0.31818015    0.63017932    0.12160000
opls_146-89    H    0.44339997    0.25946014    0.80383999    0.12460000
opls_146-90    H    0.46861008    0.53782001    0.72018110    0.12620000
opls_146-91    H    0.44117005    0.61006983    0.56289935    0.12770000
opls_146-92    H    0.28059006    0.51937983    0.07441043    0.13460000
opls_144-93    H    0.44867985    0.44662005    0.96287933    0.11260000
opls_146-94    H    0.43714991    0.68833973    0.75432945    0.13090000
opls_168-95    H    0.81180006    0.38493003    0.75212023    0.33220000
opls_146-96    H    0.58756005    0.08115986    0.26586945    0.13500000
opls_146-97    H    0.68182005    0.99932019    0.63017932    0.12160000
opls_146-98    H    0.74054011    0.18393999    0.80383999    0.12460000
opls_146-99    H    0.46217997    0.93078963    0.72018110    0.12620000
opls_146-100    H    0.38992996    0.83109982    0.56289935    0.12770000
opls_146-101    H    0.48061976    0.76120964    0.07441043    0.13460000
opls_144-102    H    0.55337983    0.00205977    0.96287933    0.11260000
opls_146-103    H    0.31166009    0.74880989    0.75432945    0.13090000
opls_168-104    H    0.61506971    0.42686979    0.75212023    0.33220000
opls_146-105    H    0.91883976    0.50639979    0.26586945    0.13500000
opls_146-106    H    0.00067987    0.68249966    0.63017932    0.12160000
opls_146-107    H    0.81605992    0.55659986    0.80383999    0.12460000
opls_146-108    H    0.06921011    0.53138992    0.72018110    0.12620000
opls_146-109    H    0.16889977    0.55882992    0.56289935    0.12770000
opls_146-110    H    0.23878974    0.71940964    0.07441043    0.13460000
opls_144-111    H    0.99793972    0.55131974    0.96287933    0.11260000
opls_146-112    H    0.25118978    0.56284994    0.75432945    0.13090000
opls_168-113    H    0.57313024    0.18820018    0.75212023    0.33220000
