#======================================================================
# Crystal Data Generated By AuToFF
#----------------------------------------------------------------------

data_AuToFF_phase_1

_cell_length_a                         27.9400
_cell_length_b                         27.9400
_cell_length_c                         41.9340
_cell_angle_alpha                      90.00
_cell_angle_beta                       90.00
_cell_angle_gamma                      90.00
_symmetry_space_group_name_H-M_alt     'P 1'
_symmetry_space_group_IT_number        1

loop_
_space_group_symop_operation_xyz
   'x, y, z'

loop_
   _atom_site_label
   _atom_site_type_symbol
   _atom_site_fract_x
   _atom_site_fract_y
   _atom_site_fract_z
   _atom_site_charge
opls_700-0    C    0.77036006    0.22572011    0.22200005    0.08620000
opls_145-1    C    0.79508017    0.22802004    0.25139004    -0.08300000
opls_145-2    C    0.77518003    0.25165999    0.27858993    -0.08340000
opls_700-3    C    0.92315999    0.07763994    0.07834001    0.07090000
opls_145-4    C    0.91209986    0.08858984    0.04583989    -0.09480000
opls_145-5    C    0.93503006    0.06538010    0.01948991    -0.08360000
opls_700-6    C    0.97012992    0.03008017    0.02463991    0.01920000
opls_700-7    C    0.98146994    0.01873014    0.05630992    0.03540000
opls_145-8    C    0.95891983    0.04152004    0.08288000    -0.06190000
opls_700-9    C    0.89820007    0.10386006    0.10684003    0.06970000
opls_145-10    C    0.92008017    0.10768003    0.13728001    -0.08300000
opls_145-11    C    0.89785004    0.13179993    0.16332999    -0.10850000
opls_145-12    C    0.85238010    0.15372011    0.16084991    0.20970000
opls_145-13    C    0.82995991    0.15025984    0.13063004    -0.10780000
opls_145-14    C    0.85230995    0.12602004    0.10437998    -0.09480000
opls_142-15    C    0.78989012    0.20076986    0.19174012    0.03670000
opls_700-16    C    0.22963994    0.77427989    0.22200005    0.08630000
opls_145-17    C    0.20491983    0.77197996    0.25139004    -0.08300000
opls_145-18    C    0.22481997    0.74834001    0.27858993    -0.08340000
opls_700-19    C    0.07684001    0.92236006    0.07834001    0.07080000
opls_145-20    C    0.08790014    0.91141016    0.04583989    -0.09480000
opls_145-21    C    0.06496994    0.93461990    0.01948991    -0.08360000
opls_700-22    C    0.02987008    0.96991983    0.02463991    0.01920000
opls_700-23    C    0.01853006    0.98126986    0.05630992    0.03550000
opls_145-24    C    0.04108017    0.95847996    0.08288000    -0.06190000
opls_700-25    C    0.10179993    0.89613994    0.10684003    0.06970000
opls_145-26    C    0.07991983    0.89231997    0.13728001    -0.08300000
opls_145-27    C    0.10214996    0.86820007    0.16332999    -0.10850000
opls_145-28    C    0.14761990    0.84627989    0.16084991    0.20970000
opls_145-29    C    0.17004009    0.84974016    0.13063004    -0.10790000
opls_145-30    C    0.14769005    0.87397996    0.10437998    -0.09480000
opls_142-31    C    0.21010988    0.79923014    0.19174012    0.03670000
opls_700-32    C    0.27427989    0.27036006    0.72200005    0.08620000
opls_145-33    C    0.27197996    0.29508017    0.75139004    -0.08300000
opls_145-34    C    0.24834001    0.27518003    0.77858993    -0.08340000
opls_700-35    C    0.42236006    0.42315999    0.57834001    0.07080000
opls_145-36    C    0.41141016    0.41209986    0.54583989    -0.09480000
opls_145-37    C    0.43461990    0.43503006    0.51948991    -0.08360000
opls_700-38    C    0.46991983    0.47012992    0.52463991    0.01920000
opls_700-39    C    0.48126986    0.48146994    0.55630992    0.03540000
opls_145-40    C    0.45847996    0.45891983    0.58288000    -0.06190000
opls_700-41    C    0.39613994    0.39820007    0.60684003    0.06970000
opls_145-42    C    0.39231997    0.42008017    0.63728001    -0.08300000
opls_145-43    C    0.36820007    0.39785004    0.66332999    -0.10850000
opls_145-44    C    0.34627989    0.35238010    0.66084991    0.20970000
opls_145-45    C    0.34974016    0.32995991    0.63063004    -0.10790000
opls_145-46    C    0.37397996    0.35230995    0.60437998    -0.09480000
opls_142-47    C    0.29923014    0.28989012    0.69174012    0.03670000
opls_700-48    C    0.72572011    0.72963994    0.72200005    0.08620000
opls_145-49    C    0.72802004    0.70491983    0.75139004    -0.08300000
opls_145-50    C    0.75165999    0.72481997    0.77858993    -0.08340000
opls_700-51    C    0.57763994    0.57684001    0.57834001    0.07080000
opls_145-52    C    0.58858984    0.58790014    0.54583989    -0.09480000
opls_145-53    C    0.56538010    0.56496994    0.51948991    -0.08360000
opls_700-54    C    0.53008017    0.52987008    0.52463991    0.01920000
opls_700-55    C    0.51873014    0.51853006    0.55630992    0.03540000
opls_145-56    C    0.54152004    0.54108017    0.58288000    -0.06190000
opls_700-57    C    0.60386006    0.60179993    0.60684003    0.06970000
opls_145-58    C    0.60768003    0.57991983    0.63728001    -0.08300000
opls_145-59    C    0.63179993    0.60214996    0.66332999    -0.10850000
opls_145-60    C    0.65372011    0.64761990    0.66084991    0.20970000
opls_145-61    C    0.65025984    0.67004009    0.63063004    -0.10790000
opls_145-62    C    0.62602004    0.64769005    0.60437998    -0.09480000
opls_142-63    C    0.70076986    0.71010988    0.69174012    0.03670000
opls_700-64    C    0.72963994    0.27427989    0.27799995    0.08620000
opls_145-65    C    0.70491983    0.27197996    0.24860996    -0.08300000
opls_145-66    C    0.72481997    0.24834001    0.22141007    -0.08340000
opls_700-67    C    0.57684001    0.42236006    0.42165999    0.07080000
opls_145-68    C    0.58790014    0.41141016    0.45416011    -0.09480000
opls_145-69    C    0.56496994    0.43461990    0.48051009    -0.08360000
opls_700-70    C    0.52987008    0.46991983    0.47536009    0.01920000
opls_700-71    C    0.51853006    0.48126986    0.44369008    0.03540000
opls_145-72    C    0.54108017    0.45847996    0.41712000    -0.06190000
opls_700-73    C    0.60179993    0.39613994    0.39315997    0.06970000
opls_145-74    C    0.57991983    0.39231997    0.36271999    -0.08300000
opls_145-75    C    0.60214996    0.36820007    0.33667001    -0.10840000
opls_145-76    C    0.64761990    0.34627989    0.33915009    0.20970000
opls_145-77    C    0.67004009    0.34974016    0.36936996    -0.10790000
opls_145-78    C    0.64769005    0.37397996    0.39562002    -0.09480000
opls_142-79    C    0.71010988    0.29923014    0.30825988    0.03670000
opls_700-80    C    0.27036006    0.72572011    0.27799995    0.08620000
opls_145-81    C    0.29508017    0.72802004    0.24860996    -0.08290000
opls_145-82    C    0.27518003    0.75165999    0.22141007    -0.08340000
opls_700-83    C    0.42315999    0.57763994    0.42165999    0.07090000
opls_145-84    C    0.41209986    0.58858984    0.45416011    -0.09480000
opls_145-85    C    0.43503006    0.56538010    0.48051009    -0.08360000
opls_700-86    C    0.47012992    0.53008017    0.47536009    0.01920000
opls_700-87    C    0.48146994    0.51873014    0.44369008    0.03540000
opls_145-88    C    0.45891983    0.54152004    0.41712000    -0.06190000
opls_700-89    C    0.39820007    0.60386006    0.39315997    0.06970000
opls_145-90    C    0.42008017    0.60768003    0.36271999    -0.08290000
opls_145-91    C    0.39785004    0.63179993    0.33667001    -0.10850000
opls_145-92    C    0.35238010    0.65372011    0.33915009    0.20970000
opls_145-93    C    0.32995991    0.65025984    0.36936996    -0.10790000
opls_145-94    C    0.35230995    0.62602004    0.39562002    -0.09480000
opls_142-95    C    0.28989012    0.70076986    0.30825988    0.03670000
opls_700-96    C    0.22572011    0.22963994    0.77799995    0.08620000
opls_145-97    C    0.22802004    0.20491983    0.74860996    -0.08300000
opls_145-98    C    0.25165999    0.22481997    0.72141007    -0.08340000
opls_700-99    C    0.07763994    0.07684001    0.92165999    0.07080000
opls_145-100    C    0.08858984    0.08790014    0.95416011    -0.09480000
opls_145-101    C    0.06538010    0.06496994    0.98051009    -0.08350000
opls_700-102    C    0.03008017    0.02987008    0.97536009    0.01920000
opls_700-103    C    0.01873014    0.01853006    0.94369008    0.03540000
opls_145-104    C    0.04152004    0.04108017    0.91712000    -0.06190000
opls_700-105    C    0.10386006    0.10179993    0.89315997    0.06970000
opls_145-106    C    0.10768003    0.07991983    0.86271999    -0.08280000
opls_145-107    C    0.13179993    0.10214996    0.83667001    -0.10850000
opls_145-108    C    0.15372011    0.14761990    0.83915009    0.20980000
opls_145-109    C    0.15025984    0.17004009    0.86936996    -0.10790000
opls_145-110    C    0.12602004    0.14769005    0.89562002    -0.09480000
opls_142-111    C    0.20076986    0.21010988    0.80825988    0.03670000
opls_700-112    C    0.77427989    0.77036006    0.77799995    0.08620000
opls_145-113    C    0.77197996    0.79508017    0.74860996    -0.08300000
opls_145-114    C    0.74834001    0.77518003    0.72141007    -0.08340000
opls_700-115    C    0.92236006    0.92315999    0.92165999    0.07090000
opls_145-116    C    0.91141016    0.91209986    0.95416011    -0.09480000
opls_145-117    C    0.93461990    0.93503006    0.98051009    -0.08360000
opls_700-118    C    0.96991983    0.97012992    0.97536009    0.01920000
opls_700-119    C    0.98126986    0.98146994    0.94369008    0.03540000
opls_145-120    C    0.95847996    0.95891983    0.91712000    -0.06190000
opls_700-121    C    0.89613994    0.89820007    0.89315997    0.06970000
opls_145-122    C    0.89231997    0.92008017    0.86271999    -0.08300000
opls_145-123    C    0.86820007    0.89785004    0.83667001    -0.10840000
opls_145-124    C    0.84627989    0.85238010    0.83915009    0.20980000
opls_145-125    C    0.84974016    0.82995991    0.86936996    -0.10790000
opls_145-126    C    0.87397996    0.85230995    0.89562002    -0.09480000
opls_142-127    C    0.79923014    0.78989012    0.80825988    0.03670000
opls_701-128    C    0.00000000    0.00000000    0.00000000    0.03270000
opls_701-129    C    0.50000000    0.50000000    0.50000000    0.03270000
opls_146-130    H    0.83186006    0.21075984    0.25385010    0.04770000
opls_146-131    H    0.79603006    0.25287008    0.30193995    0.04770000
opls_146-132    H    0.88397996    0.11685004    0.04005008    0.04770000
opls_146-133    H    0.96930995    0.03104009    0.10823008    0.04770000
opls_146-134    H    0.95679993    0.09110988    0.14159990    0.04770000
opls_146-135    H    0.91679993    0.13396994    0.18735990    0.04770000
opls_146-136    H    0.79321009    0.16697996    0.12668002    0.04770000
opls_146-137    H    0.83189012    0.12489012    0.08085992    0.04770000
opls_146-138    H    0.92490014    0.07543987    0.99401989    0.04770000
opls_144-139    H    0.76778991    0.20062992    0.16888992    0.02810000
opls_146-140    H    0.16813994    0.78924016    0.25385010    0.04770000
opls_146-141    H    0.20396994    0.74712992    0.30193995    0.04770000
opls_146-142    H    0.11602004    0.88314996    0.04005008    0.04770000
opls_146-143    H    0.03069005    0.96895991    0.10823008    0.04770000
opls_146-144    H    0.04320007    0.90889012    0.14159990    0.04780000
opls_146-145    H    0.08320007    0.86603006    0.18735990    0.04770000
opls_146-146    H    0.20678991    0.83302004    0.12668002    0.04770000
opls_146-147    H    0.16810988    0.87510988    0.08085992    0.04770000
opls_146-148    H    0.07509986    0.92456013    0.99401989    0.04770000
opls_144-149    H    0.23221009    0.79937008    0.16888992    0.02810000
opls_146-150    H    0.28924016    0.33186006    0.75385010    0.04770000
opls_146-151    H    0.24712992    0.29603006    0.80193995    0.04770000
opls_146-152    H    0.38314996    0.38397996    0.54005008    0.04770000
opls_146-153    H    0.46895991    0.46930995    0.60823008    0.04770000
opls_146-154    H    0.40889012    0.45679993    0.64159990    0.04770000
opls_146-155    H    0.36603006    0.41679993    0.68735990    0.04770000
opls_146-156    H    0.33302004    0.29321009    0.62668002    0.04770000
opls_146-157    H    0.37510988    0.33189012    0.58085992    0.04770000
opls_146-158    H    0.42456013    0.42490014    0.49401989    0.04770000
opls_144-159    H    0.29937008    0.26778991    0.66888992    0.02810000
opls_146-160    H    0.71075984    0.66813994    0.75385010    0.04770000
opls_146-161    H    0.75287008    0.70396994    0.80193995    0.04770000
opls_146-162    H    0.61685004    0.61602004    0.54005008    0.04770000
opls_146-163    H    0.53104009    0.53069005    0.60823008    0.04770000
opls_146-164    H    0.59110988    0.54320007    0.64159990    0.04770000
opls_146-165    H    0.63396994    0.58320007    0.68735990    0.04770000
opls_146-166    H    0.66697996    0.70678991    0.62668002    0.04780000
opls_146-167    H    0.62489012    0.66810988    0.58085992    0.04780000
opls_146-168    H    0.57543987    0.57509986    0.49401989    0.04770000
opls_144-169    H    0.70062992    0.73221009    0.66888992    0.02810000
opls_146-170    H    0.66813994    0.28924016    0.24614990    0.04770000
opls_146-171    H    0.70396994    0.24712992    0.19806005    0.04780000
opls_146-172    H    0.61602004    0.38314996    0.45994992    0.04770000
opls_146-173    H    0.53069005    0.46895991    0.39176992    0.04780000
opls_146-174    H    0.54320007    0.40889012    0.35840010    0.04770000
opls_146-175    H    0.58320007    0.36603006    0.31264010    0.04770000
opls_146-176    H    0.70678991    0.33302004    0.37331998    0.04770000
opls_146-177    H    0.66810988    0.37510988    0.41914008    0.04770000
opls_146-178    H    0.57509986    0.42456013    0.50598011    0.04770000
opls_144-179    H    0.73221009    0.29937008    0.33111008    0.02810000
opls_146-180    H    0.33186006    0.71075984    0.24614990    0.04770000
opls_146-181    H    0.29603006    0.75287008    0.19806005    0.04770000
opls_146-182    H    0.38397996    0.61685004    0.45994992    0.04770000
opls_146-183    H    0.46930995    0.53104009    0.39176992    0.04770000
opls_146-184    H    0.45679993    0.59110988    0.35840010    0.04770000
opls_146-185    H    0.41679993    0.63396994    0.31264010    0.04780000
opls_146-186    H    0.29321009    0.66697996    0.37331998    0.04770000
opls_146-187    H    0.33189012    0.62489012    0.41914008    0.04770000
opls_146-188    H    0.42490014    0.57543987    0.50598011    0.04770000
opls_144-189    H    0.26778991    0.70062992    0.33111008    0.02810000
opls_146-190    H    0.21075984    0.16813994    0.74614990    0.04770000
opls_146-191    H    0.25287008    0.20396994    0.69806005    0.04770000
opls_146-192    H    0.11685004    0.11602004    0.95994992    0.04770000
opls_146-193    H    0.03104009    0.03069005    0.89176992    0.04770000
opls_146-194    H    0.09110988    0.04320007    0.85840010    0.04770000
opls_146-195    H    0.13396994    0.08320007    0.81264010    0.04770000
opls_146-196    H    0.16697996    0.20678991    0.87331998    0.04770000
opls_146-197    H    0.12489012    0.16810988    0.91914008    0.04770000
opls_146-198    H    0.07543987    0.07509986    0.00598011    0.04780000
opls_144-199    H    0.20062992    0.23221009    0.83111008    0.02810000
opls_146-200    H    0.78924016    0.83186006    0.74614990    0.04770000
opls_146-201    H    0.74712992    0.79603006    0.69806005    0.04770000
opls_146-202    H    0.88314996    0.88397996    0.95994992    0.04770000
opls_146-203    H    0.96895991    0.96930995    0.89176992    0.04770000
opls_146-204    H    0.90889012    0.95679993    0.85840010    0.04770000
opls_146-205    H    0.86603006    0.91679993    0.81264010    0.04780000
opls_146-206    H    0.83302004    0.79321009    0.87331998    0.04770000
opls_146-207    H    0.87510988    0.83189012    0.91914008    0.04770000
opls_146-208    H    0.92456013    0.92490014    0.00598011    0.04770000
opls_144-209    H    0.79937008    0.76778991    0.83111008    0.02810000
opls_750-210    N    0.83144989    0.17831997    0.18901011    -0.19270000
opls_750-211    N    0.16855011    0.82168003    0.18901011    -0.19260000
opls_750-212    N    0.32168003    0.33144989    0.68901011    -0.19270000
opls_750-213    N    0.67831997    0.66855011    0.68901011    -0.19270000
opls_750-214    N    0.66855011    0.32168003    0.31098989    -0.19270000
opls_750-215    N    0.33144989    0.67831997    0.31098989    -0.19260000
opls_750-216    N    0.17831997    0.16855011    0.81098989    -0.19260000
opls_750-217    N    0.82168003    0.83144989    0.81098989    -0.19270000
