#======================================================================
# Crystal Data Generated By AuToFF
#----------------------------------------------------------------------

data_AuToFF_phase_1

_cell_length_a                         21.3752
_cell_length_b                         21.3752
_cell_length_c                         3.6120
_cell_angle_alpha                      90.00
_cell_angle_beta                       90.00
_cell_angle_gamma                      120.00
_symmetry_space_group_name_H-M_alt     'P 1'
_symmetry_space_group_IT_number        1

loop_
_space_group_symop_operation_xyz
   'x, y, z'

loop_
   _atom_site_label
   _atom_site_type_symbol
   _atom_site_fract_x
   _atom_site_fract_y
   _atom_site_fract_z
   _atom_site_charge
opls_700-0    C    0.59565025    0.27221015    0.50000000    -0.10660000
opls_567-1    C    0.65713008    0.26445009    0.50000000    0.33390000
opls_700-2    C    0.53478979    0.19983988    0.50000000    -0.11090000
opls_567-3    C    0.56286997    0.15340003    0.50000000    0.16630000
opls_423-4    C    0.72023979    0.53835001    0.50000000    0.17260000
opls_700-5    C    0.45504021    0.53078011    0.50000000    0.01420000
opls_145-6    C    0.42479006    0.45500979    0.50000000    -0.12230000
opls_145-7    C    0.46897999    0.42479987    0.50000000    -0.12470000
opls_700-8    C    0.72779003    0.32344001    0.50000000    -0.10660000
opls_567-9    C    0.73554982    0.39267978    0.50000000    0.33390000
opls_700-10    C    0.80016016    0.33495017    0.50000000    -0.11090000
opls_567-11    C    0.84659983    0.40946991    0.50000000    0.16630000
opls_423-12    C    0.46164980    0.18188993    0.50000000    0.17260000
opls_700-13    C    0.46921996    0.92425993    0.50000000    0.01420000
opls_145-14    C    0.54498993    0.96977982    0.50000000    -0.12230000
opls_145-15    C    0.57520023    0.04418018    0.50000000    -0.12470000
opls_700-16    C    0.67655972    0.40434984    0.50000000    -0.10660000
opls_567-17    C    0.60732011    0.34287012    0.50000000    0.33390000
opls_700-18    C    0.66505005    0.46520995    0.50000000    -0.11090000
opls_567-19    C    0.59053020    0.43713006    0.50000000    0.16630000
opls_423-20    C    0.81810994    0.27976006    0.50000000    0.17260000
opls_700-21    C    0.07573983    0.54495996    0.50000000    0.01420000
opls_145-22    C    0.03021973    0.57520986    0.50000000    -0.12230000
opls_145-23    C    0.95581978    0.53101996    0.50000000    -0.12470000
opls_700-24    C    0.40434975    0.72778985    0.50000000    -0.10660000
opls_567-25    C    0.34286992    0.73554991    0.50000000    0.33390000
opls_700-26    C    0.46520994    0.80015958    0.50000000    -0.11090000
opls_567-27    C    0.43713003    0.84659997    0.50000000    0.20550000
opls_423-28    C    0.27976021    0.46164999    0.50000000    0.17260000
opls_700-29    C    0.54495979    0.46921989    0.50000000    0.01420000
opls_145-30    C    0.57520967    0.54498967    0.50000000    -0.12230000
opls_145-31    C    0.53102001    0.57520013    0.50000000    -0.12470000
opls_700-32    C    0.27220997    0.67655999    0.50000000    -0.10660000
opls_567-33    C    0.26444991    0.60731968    0.50000000    0.33390000
opls_700-34    C    0.19983984    0.66504983    0.50000000    -0.11090000
opls_567-35    C    0.15340017    0.59053009    0.50000000    0.16630000
opls_423-36    C    0.53835020    0.81811007    0.50000000    0.17260000
opls_700-37    C    0.53078004    0.07574007    0.50000000    0.01420000
opls_145-38    C    0.45501007    0.03022018    0.50000000    -0.12230000
opls_145-39    C    0.42479977    0.95581982    0.50000000    -0.12470000
opls_700-40    C    0.32344001    0.59564962    0.50000000    -0.10660000
opls_567-41    C    0.39267989    0.65712988    0.50000000    0.33380000
opls_700-42    C    0.33494995    0.53479005    0.50000000    -0.11090000
opls_567-43    C    0.40946980    0.56286994    0.50000000    0.16630000
opls_423-44    C    0.18189006    0.72023994    0.50000000    0.17260000
opls_700-45    C    0.92426017    0.45504004    0.50000000    0.01420000
opls_145-46    C    0.96978027    0.42479014    0.50000000    -0.12230000
opls_145-47    C    0.04418022    0.46898004    0.50000000    -0.12470000
opls_566-48    O    0.63737990    0.19309974    0.50000000    -0.10620000
opls_566-49    O    0.80689975    0.44427968    0.50000000    -0.10620000
opls_566-50    O    0.55572008    0.36262004    0.50000000    -0.10620000
opls_566-51    O    0.36261983    0.80689972    0.50000000    -0.10620000
opls_566-52    O    0.19309998    0.55571978    0.50000000    -0.10620000
opls_566-53    O    0.44427992    0.63737996    0.50000000    -0.10620000
opls_753-54    N    0.76723989    0.59806001    0.50000000    -0.34860000
opls_753-55    N    0.40194000    0.16917997    0.50000000    -0.34850000
opls_753-56    N    0.83082011    0.23276001    0.50000000    -0.34850000
opls_753-57    N    0.23276011    0.40193999    0.50000000    -0.34850000
opls_753-58    N    0.59806000    0.83082003    0.50000000    -0.34850000
opls_753-59    N    0.16917989    0.76723999    0.50000000    -0.34850000
opls_146-60    H    0.36644999    0.41936000    0.50000000    0.11260000
opls_146-61    H    0.44461994    0.36624968    0.50000000    0.11310000
opls_146-62    H    0.58063992    0.94708956    0.50000000    0.11260000
opls_146-63    H    0.63375009    0.07836979    0.50000000    0.11310000
opls_146-64    H    0.05290982    0.63354990    0.50000000    0.11260000
opls_146-65    H    0.92163017    0.55537999    0.50000000    0.11310000
opls_146-66    H    0.63355001    0.58064000    0.50000000    0.11260000
opls_146-67    H    0.55537979    0.63374978    0.50000000    0.11310000
opls_146-68    H    0.41935981    0.05290990    0.50000000    0.11260000
opls_146-69    H    0.36624964    0.92162967    0.50000000    0.11310000
opls_146-70    H    0.94709018    0.36645010    0.50000000    0.11260000
opls_146-71    H    0.07836983    0.44462001    0.50000000    0.11310000
