#======================================================================
# Crystal Data Generated By AuToFF
#----------------------------------------------------------------------

data_AuToFF_phase_1

_cell_length_a                         21.5650
_cell_length_b                         21.5650
_cell_length_c                         3.3520
_cell_angle_alpha                      90.00
_cell_angle_beta                       90.00
_cell_angle_gamma                      120.00
_symmetry_space_group_name_H-M_alt     'P 1'
_symmetry_space_group_IT_number        1

loop_
_space_group_symop_operation_xyz
   'x, y, z'

loop_
   _atom_site_label
   _atom_site_type_symbol
   _atom_site_fract_x
   _atom_site_fract_y
   _atom_site_fract_z
   _atom_site_charge
opls_641-0    N    0.68786992    0.40311011    0.50000000    -0.35180000
opls_641-1    N    0.59689003    0.28475988    0.50000000    -0.35180000
opls_641-2    N    0.71524005    0.31213000    0.50000000    -0.35180000
opls_641-3    N    0.31213008    0.59688989    0.50000000    -0.35180000
opls_641-4    N    0.40310997    0.71524012    0.50000000    -0.35180000
opls_641-5    N    0.28475995    0.68787000    0.50000000    -0.35180000
opls_144-6    H    0.82105973    0.48865968    0.50000000    0.11050000
opls_144-7    H    0.83660007    0.35391982    0.50000000    0.12600000
opls_146-8    H    0.94674973    0.36785976    0.50000000    0.12520000
opls_146-9    H    0.07192999    0.43991007    0.50000000    0.10270000
opls_144-10    H    0.51133983    0.33240004    0.50000000    0.11050000
opls_144-11    H    0.64607997    0.48267976    0.50000000    0.12600000
opls_146-12    H    0.63214019    0.57889016    0.50000000    0.12520000
opls_146-13    H    0.56009010    0.63201976    0.50000000    0.10270000
opls_144-14    H    0.66759971    0.17893974    0.50000000    0.11050000
opls_144-15    H    0.51732016    0.16339988    0.50000000    0.12600000
opls_146-16    H    0.42111009    0.05325008    0.50000000    0.12520000
opls_146-17    H    0.36797964    0.92806963    0.50000000    0.10270000
opls_144-18    H    0.17894001    0.51133978    0.50000000    0.11050000
opls_144-19    H    0.16339993    0.64608018    0.50000000    0.12600000
opls_146-20    H    0.05325001    0.63213971    0.50000000    0.12520000
opls_146-21    H    0.92807001    0.56008993    0.50000000    0.10270000
opls_144-22    H    0.48866017    0.66759996    0.50000000    0.11050000
opls_144-23    H    0.35391976    0.51731970    0.50000000    0.12600000
opls_146-24    H    0.36785981    0.42110984    0.50000000    0.12520000
opls_146-25    H    0.43990963    0.36797970    0.50000000    0.10270000
opls_144-26    H    0.33240002    0.82105972    0.50000000    0.11050000
opls_144-27    H    0.48267984    0.83660012    0.50000000    0.12600000
opls_146-28    H    0.57888991    0.94674992    0.50000000    0.12520000
opls_146-29    H    0.63202010    0.07192983    0.50000000    0.10280000
opls_142-30    C    0.85391009    0.41065998    0.50000000    -0.17010000
opls_142-31    C    0.80795018    0.43350018    0.50000000    -0.19070000
opls_700-32    C    0.92805993    0.45781984    0.50000000    0.12580000
opls_145-33    C    0.95803020    0.53246012    0.50000000    -0.17070000
opls_145-34    C    0.03019012    0.57442985    0.50000000    -0.17000000
opls_642-35    C    0.73569988    0.38185003    0.50000000    0.46310000
opls_142-36    C    0.58933992    0.44325021    0.50000000    -0.17010000
opls_142-37    C    0.56650026    0.37445009    0.50000000    -0.19070000
opls_700-38    C    0.54218013    0.47024016    0.50000000    0.12570000
opls_145-39    C    0.46754000    0.42557015    0.50000000    -0.17070000
opls_145-40    C    0.42556975    0.45575996    0.50000000    -0.16980000
opls_642-41    C    0.61815024    0.35385022    0.50000000    0.46310000
opls_142-42    C    0.55674998    0.14608981    0.50000000    -0.17000000
opls_142-43    C    0.62555002    0.19204973    0.50000000    -0.19070000
opls_700-44    C    0.52975994    0.07194000    0.50000000    0.12570000
opls_145-45    C    0.57442980    0.04196973    0.50000000    -0.17080000
opls_145-46    C    0.54423986    0.96980966    0.50000000    -0.16990000
opls_642-47    C    0.64614988    0.26429976    0.50000000    0.46310000
opls_142-48    C    0.14608991    0.58934002    0.50000000    -0.17010000
opls_142-49    C    0.19204982    0.56649982    0.50000000    -0.19060000
opls_700-50    C    0.07194007    0.54218016    0.50000000    0.12570000
opls_145-51    C    0.04196980    0.46753988    0.50000000    -0.17080000
opls_145-52    C    0.96980988    0.42557015    0.50000000    -0.17000000
opls_642-53    C    0.26430012    0.61814997    0.50000000    0.46320000
opls_142-54    C    0.41066008    0.55674979    0.50000000    -0.17010000
opls_142-55    C    0.43349974    0.62554991    0.50000000    -0.19070000
opls_700-56    C    0.45781987    0.52975984    0.50000000    0.12570000
opls_145-57    C    0.53246000    0.57442985    0.50000000    -0.17080000
opls_145-58    C    0.57443025    0.54424004    0.50000000    -0.17000000
opls_642-59    C    0.38184976    0.64614978    0.50000000    0.46320000
opls_142-60    C    0.44324975    0.85390965    0.50000000    -0.17010000
opls_142-61    C    0.37444971    0.80794974    0.50000000    -0.19070000
opls_700-62    C    0.47024006    0.92806000    0.50000000    0.12570000
opls_145-63    C    0.42556993    0.95802973    0.50000000    -0.17080000
opls_145-64    C    0.45575987    0.03018981    0.50000000    -0.17000000
opls_642-65    C    0.35384985    0.73569971    0.50000000    0.46320000
