#======================================================================
# Crystal Data Generated By AuToFF
#----------------------------------------------------------------------

data_AuToFF_phase_1

_cell_length_a                         34.1122
_cell_length_b                         34.1122
_cell_length_c                         3.4871
_cell_angle_alpha                      90.00
_cell_angle_beta                       90.00
_cell_angle_gamma                      90.00
_symmetry_space_group_name_H-M_alt     'P 1'
_symmetry_space_group_IT_number        1

loop_
_space_group_symop_operation_xyz
   'x, y, z'

loop_
   _atom_site_label
   _atom_site_type_symbol
   _atom_site_fract_x
   _atom_site_fract_y
   _atom_site_fract_z
   _atom_site_charge
opls_700-0    C    0.10259995    0.00000000    0.03184881    -0.13030000
opls_700-1    C    0.14770991    0.00005013    0.03190904    0.06530000
opls_700-2    C    0.23146001    0.99984991    0.03221875    0.06990000
opls_145-3    C    0.35759992    0.99944008    0.02469100    0.17230000
opls_700-4    C    0.27475009    0.99966991    0.03102005    0.07510000
opls_700-5    C    0.89704006    0.00056988    0.96920937    -0.13030000
opls_700-6    C    0.85188994    0.00037992    0.96992056    0.06490000
opls_700-7    C    0.76810994    0.99991997    0.96955063    0.06990000
opls_145-8    C    0.64196006    0.99939992    0.97643887    0.17280000
opls_700-9    C    0.72480989    0.99966991    0.97012130    0.07510000
opls_700-10    C    0.99943012    0.10295994    0.03079063    -0.13030000
opls_700-11    C    0.99962008    0.14811006    0.03009091    0.06490000
opls_700-12    C    0.00008003    0.23189006    0.03046084    0.06990000
opls_145-13    C    0.00060008    0.35803994    0.02358120    0.17280000
opls_700-14    C    0.00033009    0.27519011    0.02989017    0.07510000
opls_700-15    C    0.00000000    0.89739008    0.96813111    -0.13030000
opls_700-16    C    0.99994987    0.85229009    0.96807089    0.06530000
opls_700-17    C    0.00015009    0.76853999    0.96776978    0.06990000
opls_145-18    C    0.00055992    0.64240008    0.97530900    0.17230000
opls_700-19    C    0.00033009    0.72524991    0.96897135    0.07510000
opls_507-20    C    0.08245994    0.96308007    0.00236873    0.19440000
opls_234-21    C    0.42412011    0.96757993    0.03929913    0.44440000
opls_700-22    C    0.46506997    0.97914001    0.01504975    -0.06480000
opls_145-23    C    0.29536998    0.96607988    0.91705142    -0.11490000
opls_145-24    C    0.33633011    0.96625987    0.90619139    -0.16420000
opls_716-25    C    0.07301992    0.89920996    0.01847954    -0.19290000
opls_145-26    C    0.16984012    0.02886006    0.83574030    -0.12720000
opls_145-27    C    0.21069002    0.03040994    0.85941900    -0.11590000
opls_507-28    C    0.91726010    0.03752001    0.96635026    0.19390000
opls_234-29    C    0.57551990    0.03120995    0.01141923    0.44480000
opls_700-30    C    0.53451991    0.01962993    0.00182100    -0.06480000
opls_145-31    C    0.70381007    0.03308992    0.85795073    -0.11490000
opls_145-32    C    0.66284995    0.03264990    0.85329070    -0.16420000
opls_716-33    C    0.92629001    0.10092987    0.04401078    -0.19330000
opls_145-34    C    0.82997989    0.97127010    0.77563878    -0.12590000
opls_145-35    C    0.78913996    0.96945990    0.79804996    -0.11830000
opls_543-36    C    0.03632014    0.08252004    0.01855983    0.18850000
opls_234-37    C    0.03244997    0.42456013    0.03726879    0.44440000
opls_700-38    C    0.02086995    0.46550999    0.01293912    -0.07160000
opls_145-39    C    0.03393009    0.29578010    0.91576955    -0.11490000
opls_145-40    C    0.03376006    0.33673993    0.90496975    -0.16430000
opls_716-41    C    0.10027996    0.07320988    0.05495971    -0.19330000
opls_145-42    C    0.97084005    0.17037013    0.83455020    -0.12720000
opls_145-43    C    0.96943997    0.21122003    0.85807118    -0.11900000
opls_543-44    C    0.96309004    0.91779012    0.94834103    0.18890000
opls_234-45    C    0.96875986    0.57594995    0.01003126    0.44440000
opls_700-46    C    0.98036011    0.53494996    0.00010897    -0.06560000
opls_145-47    C    0.96689014    0.70427003    0.85715924    -0.11510000
opls_145-48    C    0.96729997    0.66329993    0.85251068    -0.16420000
opls_716-49    C    0.89937002    0.92751010    0.00868057    -0.19330000
opls_145-50    C    0.02890989    0.83031994    0.77285997    -0.12410000
opls_145-51    C    0.03064006    0.78948001    0.79558086    -0.11830000
opls_543-52    C    0.91747996    0.96367986    0.98144017    0.18850000
opls_234-53    C    0.57543987    0.96755003    0.96273981    0.44440000
opls_700-54    C    0.53449001    0.97913005    0.98706948    -0.07160000
opls_145-55    C    0.70421990    0.96606991    0.08423905    -0.11490000
opls_145-56    C    0.66326007    0.96623994    0.09503886    -0.16430000
opls_716-57    C    0.92680009    0.89972004    0.94502882    -0.19330000
opls_145-58    C    0.82962987    0.02915995    0.16544980    -0.12720000
opls_145-59    C    0.78877997    0.03056003    0.14192882    -0.10810000
opls_543-60    C    0.08220988    0.03690996    0.05163890    0.18720000
opls_234-61    C    0.42405005    0.03124014    0.98998021    0.44480000
opls_700-62    C    0.46505004    0.01963989    0.99989963    -0.06560000
opls_145-63    C    0.29572997    0.03310986    0.14284076    -0.11510000
opls_145-64    C    0.33670007    0.03269006    0.14748932    -0.16420000
opls_716-65    C    0.07248990    0.10062998    0.99131943    -0.19340000
opls_145-66    C    0.16968006    0.97109011    0.22711996    -0.12400000
opls_145-67    C    0.21051999    0.96935994    0.20441054    -0.11830000
opls_507-68    C    0.96247999    0.08273990    0.03364974    0.19400000
opls_234-69    C    0.96879005    0.42448010    0.98860945    0.44480000
opls_700-70    C    0.98037007    0.46548009    0.99819908    -0.06480000
opls_145-71    C    0.96691008    0.29618993    0.14204927    -0.11490000
opls_145-72    C    0.96735010    0.33715005    0.14672937    -0.16420000
opls_716-73    C    0.89907013    0.07370999    0.95598922    -0.19330000
opls_145-74    C    0.02872990    0.17002011    0.22436982    -0.12590000
opls_145-75    C    0.03054010    0.21086004    0.20195004    -0.11830000
opls_507-76    C    0.03691993    0.91754006    0.99761120    0.19460000
opls_234-77    C    0.03242007    0.57587989    0.96070087    0.44440000
opls_700-78    C    0.02085999    0.53493003    0.98495025    -0.06480000
opls_145-79    C    0.03392012    0.70463002    0.08293998    -0.11490000
opls_145-80    C    0.03372987    0.66366989    0.09380861    -0.16280000
opls_716-81    C    0.10079004    0.92698008    0.98150039    -0.19290000
opls_145-82    C    0.97113994    0.83015988    0.16423963    -0.12720000
opls_145-83    C    0.96959006    0.78930998    0.14056092    -0.11820000
opls_145-84    C    0.49979010    0.04160007    0.00075134    -0.16170000
opls_145-85    C    0.49976988    0.95716987    0.00117003    -0.15510000
opls_145-86    C    0.95839993    0.50020990    0.99926873    -0.16180000
opls_145-87    C    0.04283013    0.50023012    0.99882997    -0.15510000
opls_542-88    N    0.59966991    0.99938995    0.98257004    -0.20340000
opls_542-89    N    0.39989007    0.99941986    0.01896131    -0.20340000
opls_542-90    N    0.00058014    0.60010993    0.98103869    -0.20340000
opls_542-91    N    0.00062001    0.40033009    0.01745003    -0.20330000
opls_542-92    N    0.04292013    0.95707987    0.99999140    -0.33090000
opls_542-93    N    0.95662989    0.04337011    0.00000000    -0.29240000
opls_542-94    N    0.04275010    0.04320009    0.04982077    -0.22150000
opls_542-95    N    0.95679991    0.95724990    0.95017063    -0.22140000
opls_236-96    O    0.41279015    0.93428011    0.09513923    -0.36070000
opls_236-97    O    0.58701989    0.06451006    0.06349115    -0.37400000
opls_236-98    O    0.06576005    0.41325010    0.09273895    -0.36070000
opls_236-99    O    0.93546004    0.58743001    0.06245017    -0.37400000
opls_236-100    O    0.58674990    0.93423995    0.90726105    -0.36060000
opls_236-101    O    0.41256999    0.06453996    0.93756990    -0.37400000
opls_236-102    O    0.93548994    0.41298011    0.93654899    -0.37400000
opls_236-103    O    0.06571989    0.58720985    0.90484930    -0.36070000
opls_146-104    H    0.27976003    0.94010002    0.82482865    0.11920000
opls_146-105    H    0.35139012    0.94071007    0.79655875    0.12490000
opls_547-106    H    0.08063010    0.86898001    0.05998107    0.11020000
opls_146-107    H    0.15604007    0.04928002    0.64307878    0.10530000
opls_146-108    H    0.22620998    0.05365998    0.71262941    0.12060000
opls_146-109    H    0.71912014    0.05916007    0.76353130    0.12140000
opls_146-110    H    0.64744989    0.05811000    0.74592928    0.12340000
opls_547-111    H    0.91856990    0.13075996    0.10870064    0.09720000
opls_146-112    H    0.84402003    0.95055992    0.58842018    0.09850000
opls_146-113    H    0.77382989    0.94597006    0.65282900    0.12370000
opls_146-114    H    0.05988004    0.28015988    0.82321126    0.12100000
opls_146-115    H    0.05930987    0.35179994    0.79517077    0.12410000
opls_547-116    H    0.13035014    0.08111995    0.10322904    0.09960000
opls_146-117    H    0.95026002    0.15669995    0.64274039    0.11130000
opls_146-118    H    0.94619989    0.22681006    0.71188093    0.12370000
opls_146-119    H    0.94082997    0.71960003    0.76284018    0.12110000
opls_146-120    H    0.94183987    0.64791013    0.74535861    0.12180000
opls_547-121    H    0.86941006    0.92002011    0.06822001    0.09960000
opls_146-122    H    0.04957992    0.84435012    0.58505062    0.09850000
opls_146-123    H    0.05406013    0.77409988    0.65005879    0.12070000
opls_146-124    H    0.71984012    0.94011996    0.17680881    0.12110000
opls_146-125    H    0.64820006    0.94069013    0.20484930    0.12410000
opls_547-126    H    0.91888005    0.86964986    0.89675088    0.09960000
opls_146-127    H    0.84330005    0.04973998    0.35725961    0.11130000
opls_146-128    H    0.77319991    0.05380011    0.28813054    0.12070000
opls_146-129    H    0.28039997    0.05917003    0.23715121    0.12120000
opls_146-130    H    0.35208987    0.05816013    0.25465000    0.12410000
opls_547-131    H    0.07997989    0.13058994    0.93178859    0.09960000
opls_146-132    H    0.15564988    0.95042008    0.41492931    0.09850000
opls_146-133    H    0.22590012    0.94593987    0.34992974    0.12070000
opls_146-134    H    0.94083993    0.28087986    0.23646870    0.12140000
opls_146-135    H    0.94189000    0.35255011    0.25407932    0.12050000
opls_547-136    H    0.86924004    0.08143010    0.89131083    0.09720000
opls_146-137    H    0.04944008    0.15597997    0.41159129    0.09850000
opls_146-138    H    0.05402994    0.22617011    0.34717960    0.12060000
opls_146-139    H    0.05989998    0.72023997    0.17515987    0.11920000
opls_146-140    H    0.05927996    0.64860988    0.20342978    0.12490000
opls_547-141    H    0.13101999    0.91937987    0.93999025    0.11020000
opls_146-142    H    0.95071998    0.84395993    0.35690115    0.10530000
opls_146-143    H    0.94634002    0.77379999    0.28735912    0.12070000
opls_545-144    H    0.97797005    0.97844994    0.90960970    0.28400000
opls_545-145    H    0.02155006    0.02202995    0.09037022    0.28390000
opls_146-146    H    0.49976988    0.92536014    0.00127900    0.11940000
opls_146-147    H    0.49980007    0.07341010    0.00053913    0.11940000
opls_146-148    H    0.07463986    0.50023012    0.99872100    0.11940000
opls_146-149    H    0.92658990    0.50019993    0.99948094    0.11940000
