#======================================================================
# Crystal Data Generated By AuToFF
#----------------------------------------------------------------------

data_AuToFF_phase_1

_cell_length_a                         44.1014
_cell_length_b                         44.1014
_cell_length_c                         3.5323
_cell_angle_alpha                      90.00
_cell_angle_beta                       90.00
_cell_angle_gamma                      90.00
_symmetry_space_group_name_H-M_alt     'P 1'
_symmetry_space_group_IT_number        1

loop_
_space_group_symop_operation_xyz
   'x, y, z'

loop_
   _atom_site_label
   _atom_site_type_symbol
   _atom_site_fract_x
   _atom_site_fract_y
   _atom_site_fract_z
   _atom_site_charge
opls_700-0    C    0.56004004    0.93993002    0.00000000    -0.14830000
opls_700-1    C    0.43995996    0.06006998    0.00000000    -0.14830000
opls_700-2    C    0.06006998    0.56004004    0.00000000    -0.14830000
opls_700-3    C    0.93993002    0.43995996    0.00000000    -0.14830000
opls_700-4    C    0.43995996    0.93993002    0.00000000    -0.14830000
opls_700-5    C    0.56004004    0.06006998    0.00000000    -0.14830000
opls_700-6    C    0.93993002    0.56004004    0.00000000    -0.14830000
opls_700-7    C    0.06006998    0.43995996    0.00000000    -0.14830000
opls_700-8    C    0.58471999    0.91541992    0.00000000    0.05290000
opls_700-9    C    0.41528001    0.08458008    0.00000000    0.05290000
opls_700-10    C    0.08458008    0.58471999    0.00000000    0.05290000
opls_700-11    C    0.91541992    0.41528001    0.00000000    0.05290000
opls_700-12    C    0.41528001    0.91541992    0.00000000    0.05290000
opls_700-13    C    0.58471999    0.08458008    0.00000000    0.05290000
opls_700-14    C    0.91541992    0.58471999    0.00000000    0.05290000
opls_700-15    C    0.08458008    0.41528001    0.00000000    0.05290000
opls_145-16    C    0.63425991    0.86596004    0.00000000    -0.28560000
opls_145-17    C    0.36574009    0.13403996    0.00000000    -0.28560000
opls_145-18    C    0.13403996    0.63425991    0.00000000    -0.28560000
opls_145-19    C    0.86596004    0.36574009    0.00000000    -0.28560000
opls_145-20    C    0.36574009    0.86596004    0.00000000    -0.28560000
opls_145-21    C    0.63425991    0.13403996    0.00000000    -0.28560000
opls_145-22    C    0.86596004    0.63425991    0.00000000    -0.28560000
opls_145-23    C    0.13403996    0.36574009    0.00000000    -0.28560000
opls_507-24    C    0.02731999    0.43445990    0.00000000    0.16570000
opls_507-25    C    0.97268001    0.56554010    0.00000000    0.16570000
opls_507-26    C    0.56554010    0.02731999    0.00000000    0.16570000
opls_507-27    C    0.43445990    0.97268001    0.00000000    0.16570000
opls_507-28    C    0.97268001    0.43445990    0.00000000    0.16570000
opls_507-29    C    0.02731999    0.56554010    0.00000000    0.16570000
opls_507-30    C    0.43445990    0.02731999    0.00000000    0.16570000
opls_507-31    C    0.56554010    0.97268001    0.00000000    0.16570000
opls_145-32    C    0.18773009    0.26641989    0.00000000    -0.24750000
opls_145-33    C    0.81226991    0.73358011    0.00000000    -0.24750000
opls_145-34    C    0.73358011    0.18773009    0.00000000    -0.24750000
opls_145-35    C    0.26641989    0.81226991    0.00000000    -0.24750000
opls_145-36    C    0.81226991    0.26641989    0.00000000    -0.24750000
opls_145-37    C    0.18773009    0.73358011    0.00000000    -0.24750000
opls_145-38    C    0.26641989    0.18773009    0.00000000    -0.24750000
opls_145-39    C    0.73358011    0.81226991    0.00000000    -0.24750000
opls_700-40    C    0.21873999    0.25808002    0.00000000    0.06420000
opls_700-41    C    0.78126001    0.74191998    0.00000000    0.06420000
opls_700-42    C    0.74191998    0.21873999    0.00000000    0.06420000
opls_700-43    C    0.25808002    0.78126001    0.00000000    0.06420000
opls_700-44    C    0.78126001    0.25808002    0.00000000    0.06420000
opls_700-45    C    0.21873999    0.74191998    0.00000000    0.06420000
opls_700-46    C    0.25808002    0.21873999    0.00000000    0.06420000
opls_700-47    C    0.74191998    0.78126001    0.00000000    0.06420000
opls_716-48    C    0.98499005    0.40605990    0.00000000    -0.23390000
opls_716-49    C    0.01500995    0.59394010    0.00000000    -0.23390000
opls_716-50    C    0.59394010    0.98499005    0.00000000    -0.23390000
opls_716-51    C    0.40605990    0.01500995    0.00000000    -0.23390000
opls_716-52    C    0.01500995    0.40605990    0.00000000    -0.23390000
opls_716-53    C    0.98499005    0.59394010    0.00000000    -0.23390000
opls_716-54    C    0.40605990    0.98499005    0.00000000    -0.23390000
opls_716-55    C    0.59394010    0.01500995    0.00000000    -0.23390000
opls_145-56    C    0.61764003    0.91866993    0.00000000    -0.21770000
opls_145-57    C    0.38235997    0.08133007    0.00000000    -0.21770000
opls_145-58    C    0.08133007    0.61764003    0.00000000    -0.21770000
opls_145-59    C    0.91866993    0.38235997    0.00000000    -0.21770000
opls_145-60    C    0.38235997    0.91866993    0.00000000    -0.21770000
opls_145-61    C    0.61764003    0.08133007    0.00000000    -0.21770000
opls_145-62    C    0.91866993    0.61764003    0.00000000    -0.21770000
opls_145-63    C    0.08133007    0.38235997    0.00000000    -0.21770000
opls_145-64    C    0.64110006    0.89670010    0.00000000    -0.13240000
opls_145-65    C    0.35889994    0.10329990    0.00000000    -0.13240000
opls_145-66    C    0.10329990    0.64110006    0.00000000    -0.13240000
opls_145-67    C    0.89670010    0.35889994    0.00000000    -0.13240000
opls_145-68    C    0.35889994    0.89670010    0.00000000    -0.13240000
opls_145-69    C    0.64110006    0.10329990    0.00000000    -0.13240000
opls_145-70    C    0.89670010    0.64110006    0.00000000    -0.13240000
opls_145-71    C    0.10329990    0.35889994    0.00000000    -0.13240000
opls_166-72    C    0.81986989    0.70276000    0.00000000    0.15220000
opls_166-73    C    0.18013011    0.29724000    0.00000000    0.14680000
opls_166-74    C    0.29724000    0.81986989    0.00000000    0.15220000
opls_166-75    C    0.70276000    0.18013011    0.00000000    0.15220000
opls_166-76    C    0.18013011    0.70276000    0.00000000    0.15220000
opls_166-77    C    0.81986989    0.29724000    0.00000000    0.15220000
opls_166-78    C    0.70276000    0.81986989    0.00000000    0.15220000
opls_166-79    C    0.29724000    0.18013011    0.00000000    0.14680000
opls_543-80    C    0.52737011    0.93408010    0.00000000    0.14550000
opls_543-81    C    0.47262989    0.06591990    0.00000000    0.14550000
opls_543-82    C    0.06591990    0.52737011    0.00000000    0.14550000
opls_543-83    C    0.93408010    0.47262989    0.00000000    0.14550000
opls_543-84    C    0.47262989    0.93408010    0.00000000    0.14550000
opls_543-85    C    0.52737011    0.06591990    0.00000000    0.14550000
opls_543-86    C    0.93408010    0.52737011    0.00000000    0.14550000
opls_543-87    C    0.06591990    0.47262989    0.00000000    0.14550000
opls_145-88    C    0.68797997    0.76666999    0.00000000    -0.24750000
opls_145-89    C    0.31202003    0.23333001    0.00000000    -0.24750000
opls_145-90    C    0.23333001    0.68797997    0.00000000    -0.24750000
opls_145-91    C    0.76666999    0.31202003    0.00000000    -0.24750000
opls_145-92    C    0.31202003    0.76666999    0.00000000    -0.24750000
opls_145-93    C    0.68797997    0.23333001    0.00000000    -0.24750000
opls_145-94    C    0.76666999    0.68797997    0.00000000    -0.24750000
opls_145-95    C    0.23333001    0.31202003    0.00000000    -0.24750000
opls_700-96    C    0.71900008    0.75832989    0.00000000    0.06560000
opls_700-97    C    0.28099992    0.24167011    0.00000000    0.06560000
opls_700-98    C    0.24167011    0.71900008    0.00000000    0.06560000
opls_700-99    C    0.75832989    0.28099992    0.00000000    0.06560000
opls_700-100    C    0.28099992    0.75832989    0.00000000    0.06560000
opls_700-101    C    0.71900008    0.24167011    0.00000000    0.06560000
opls_700-102    C    0.75832989    0.71900008    0.00000000    0.06560000
opls_700-103    C    0.24167011    0.28099992    0.00000000    0.06560000
opls_716-104    C    0.48497009    0.90566989    0.00000000    -0.23390000
opls_716-105    C    0.51502991    0.09433011    0.00000000    -0.23390000
opls_716-106    C    0.09433011    0.48497009    0.00000000    -0.23390000
opls_716-107    C    0.90566989    0.51502991    0.00000000    -0.23390000
opls_716-108    C    0.51502991    0.90566989    0.00000000    -0.23390000
opls_716-109    C    0.48497009    0.09433011    0.00000000    -0.23390000
opls_716-110    C    0.90566989    0.48497009    0.00000000    -0.23390000
opls_716-111    C    0.09433011    0.51502991    0.00000000    -0.23390000
opls_145-112    C    0.11747994    0.41845996    0.00000000    -0.21770000
opls_145-113    C    0.88252006    0.58154004    0.00000000    -0.21770000
opls_145-114    C    0.58154004    0.11747994    0.00000000    -0.21770000
opls_145-115    C    0.41845996    0.88252006    0.00000000    -0.21770000
opls_145-116    C    0.88252006    0.41845996    0.00000000    -0.21770000
opls_145-117    C    0.11747994    0.58154004    0.00000000    -0.21770000
opls_145-118    C    0.41845996    0.11747994    0.00000000    -0.21770000
opls_145-119    C    0.58154004    0.88252006    0.00000000    -0.21770000
opls_145-120    C    0.14092002    0.39646995    0.00000000    -0.13240000
opls_145-121    C    0.85907998    0.60353005    0.00000000    -0.13240000
opls_145-122    C    0.60353005    0.14092002    0.00000000    -0.13240000
opls_145-123    C    0.39646995    0.85907998    0.00000000    -0.13240000
opls_145-124    C    0.85907998    0.39646995    0.00000000    -0.13240000
opls_145-125    C    0.14092002    0.60353005    0.00000000    -0.13240000
opls_145-126    C    0.39646995    0.14092002    0.00000000    -0.13240000
opls_145-127    C    0.60353005    0.85907998    0.00000000    -0.13240000
opls_166-128    C    0.31962001    0.20252010    0.00000000    0.15220000
opls_166-129    C    0.68038996    0.79749010    0.00000000    0.15220000
opls_166-130    C    0.79749010    0.31962001    0.00000000    0.15220000
opls_166-131    C    0.20252010    0.68038996    0.00000000    0.15220000
opls_166-132    C    0.68038996    0.20252010    0.00000000    0.15220000
opls_166-133    C    0.31962001    0.79749010    0.00000000    0.15220000
opls_166-134    C    0.20252010    0.31962001    0.00000000    0.15220000
opls_166-135    C    0.79749010    0.68038996    0.00000000    0.15220000
opls_145-136    C    0.77276005    0.77276005    0.00000000    -0.10080000
opls_145-137    C    0.22723995    0.22723995    0.00000000    -0.10080000
opls_145-138    C    0.22723995    0.77276005    0.00000000    -0.10080000
opls_145-139    C    0.77276005    0.22723995    0.00000000    -0.10080000
opls_145-140    C    0.27250994    0.27250994    0.00000000    -0.10080000
opls_145-141    C    0.72749006    0.72749006    0.00000000    -0.10080000
opls_145-142    C    0.72749006    0.27250994    0.00000000    -0.10080000
opls_145-143    C    0.27250994    0.72749006    0.00000000    -0.10080000
MOF2_B_2-144    B    0.65817004    0.84207009    0.00000000    0.49320000
MOF2_B_2-145    B    0.34182996    0.15792991    0.00000000    0.49320000
MOF2_B_2-146    B    0.15792991    0.65817004    0.00000000    0.49320000
MOF2_B_2-147    B    0.84207009    0.34182996    0.00000000    0.49320000
MOF2_B_2-148    B    0.34182996    0.84207009    0.00000000    0.49320000
MOF2_B_2-149    B    0.65817004    0.15792991    0.00000000    0.49320000
MOF2_B_2-150    B    0.84207009    0.65817004    0.00000000    0.49320000
MOF2_B_2-151    B    0.15792991    0.34182996    0.00000000    0.49320000
opls_167-152    O    0.69036992    0.84779009    0.00000000    -0.39260000
opls_167-153    O    0.30963008    0.15220991    0.00000000    -0.39260000
opls_167-154    O    0.15220991    0.69036992    0.00000000    -0.39260000
opls_167-155    O    0.84779009    0.30963008    0.00000000    -0.39260000
opls_167-156    O    0.30963008    0.84779009    0.00000000    -0.39260000
opls_167-157    O    0.69036992    0.15220991    0.00000000    -0.39260000
opls_167-158    O    0.84779009    0.69036992    0.00000000    -0.39260000
opls_167-159    O    0.15220991    0.30963008    0.00000000    -0.39260000
opls_167-160    O    0.19013002    0.34753999    0.00000000    -0.39260000
opls_167-161    O    0.80986998    0.65246001    0.00000000    -0.39270000
opls_167-162    O    0.65246001    0.19013002    0.00000000    -0.39270000
opls_167-163    O    0.34753999    0.80986998    0.00000000    -0.39300000
opls_167-164    O    0.80986998    0.34753999    0.00000000    -0.39300000
opls_167-165    O    0.19013002    0.65246001    0.00000000    -0.39270000
opls_167-166    O    0.34753999    0.19013002    0.00000000    -0.39260000
opls_167-167    O    0.65246001    0.80986998    0.00000000    -0.39270000
opls_146-168    H    0.17072995    0.25071993    0.00000000    0.21080000
opls_146-169    H    0.82927005    0.74928007    0.00000000    0.21080000
opls_146-170    H    0.74928007    0.17072995    0.00000000    0.21080000
opls_146-171    H    0.25071993    0.82927005    0.00000000    0.21080000
opls_146-172    H    0.82927005    0.25071993    0.00000000    0.21080000
opls_146-173    H    0.17072995    0.74928007    0.00000000    0.21080000
opls_146-174    H    0.25071993    0.17072995    0.00000000    0.21080000
opls_146-175    H    0.74928007    0.82927005    0.00000000    0.21080000
opls_547-176    H    0.97664995    0.38588004    0.00000000    0.21130000
opls_547-177    H    0.02335005    0.61411996    0.00000000    0.21130000
opls_547-178    H    0.61411996    0.97664995    0.00000000    0.21130000
opls_547-179    H    0.38588004    0.02335005    0.00000000    0.21130000
opls_547-180    H    0.02335005    0.38588004    0.00000000    0.21130000
opls_547-181    H    0.97664995    0.61411996    0.00000000    0.21130000
opls_547-182    H    0.38588004    0.97664995    0.00000000    0.21130000
opls_547-183    H    0.61411996    0.02335005    0.00000000    0.21130000
opls_146-184    H    0.62912991    0.93729995    0.00000000    0.21110000
opls_146-185    H    0.37087009    0.06270005    0.00000000    0.21110000
opls_146-186    H    0.06270005    0.62912991    0.00000000    0.21110000
opls_146-187    H    0.93729995    0.37087009    0.00000000    0.21110000
opls_146-188    H    0.37087009    0.93729995    0.00000000    0.21110000
opls_146-189    H    0.62912991    0.06270005    0.00000000    0.21110000
opls_146-190    H    0.93729995    0.62912991    0.00000000    0.21110000
opls_146-191    H    0.06270005    0.37087009    0.00000000    0.21110000
opls_146-192    H    0.66360002    0.90304004    0.00000000    0.21080000
opls_146-193    H    0.33639998    0.09695996    0.00000000    0.21080000
opls_146-194    H    0.09695996    0.66360002    0.00000000    0.21080000
opls_146-195    H    0.90304004    0.33639998    0.00000000    0.21080000
opls_146-196    H    0.33639998    0.90304004    0.00000000    0.21080000
opls_146-197    H    0.66360002    0.09695996    0.00000000    0.21080000
opls_146-198    H    0.90304004    0.66360002    0.00000000    0.21080000
opls_146-199    H    0.09695996    0.33639998    0.00000000    0.21080000
opls_146-200    H    0.67099004    0.75096006    0.00000000    0.21080000
opls_146-201    H    0.32901994    0.24903994    0.00000000    0.21080000
opls_146-202    H    0.24903994    0.67099004    0.00000000    0.21080000
opls_146-203    H    0.75096006    0.32901994    0.00000000    0.21080000
opls_146-204    H    0.32901994    0.75096006    0.00000000    0.21080000
opls_146-205    H    0.67099004    0.24903994    0.00000000    0.21080000
opls_146-206    H    0.75096006    0.67099004    0.00000000    0.21080000
opls_146-207    H    0.24903994    0.32901994    0.00000000    0.21080000
opls_547-208    H    0.47665992    0.88544990    0.00000000    0.21110000
opls_547-209    H    0.52334008    0.11455010    0.00000000    0.21110000
opls_547-210    H    0.11455010    0.47665992    0.00000000    0.21110000
opls_547-211    H    0.88544990    0.52334008    0.00000000    0.21110000
opls_547-212    H    0.52334008    0.88544990    0.00000000    0.21110000
opls_547-213    H    0.47665992    0.11455010    0.00000000    0.21110000
opls_547-214    H    0.88544990    0.47665992    0.00000000    0.21110000
opls_547-215    H    0.11455010    0.52334008    0.00000000    0.21110000
opls_146-216    H    0.12893990    0.43708000    0.00000000    0.21110000
opls_146-217    H    0.87106010    0.56292000    0.00000000    0.21110000
opls_146-218    H    0.56292000    0.12893990    0.00000000    0.21110000
opls_146-219    H    0.43708000    0.87106010    0.00000000    0.21110000
opls_146-220    H    0.87106010    0.43708000    0.00000000    0.21110000
opls_146-221    H    0.12893990    0.56292000    0.00000000    0.21110000
opls_146-222    H    0.43708000    0.12893990    0.00000000    0.21110000
opls_146-223    H    0.56292000    0.87106010    0.00000000    0.21110000
opls_146-224    H    0.16342996    0.40278993    0.00000000    0.21080000
opls_146-225    H    0.83657004    0.59721007    0.00000000    0.21080000
opls_146-226    H    0.59721007    0.16342996    0.00000000    0.21080000
opls_146-227    H    0.40278993    0.83657004    0.00000000    0.21080000
opls_146-228    H    0.83657004    0.40278993    0.00000000    0.21080000
opls_146-229    H    0.16342996    0.59721007    0.00000000    0.21080000
opls_146-230    H    0.40278993    0.16342996    0.00000000    0.21080000
opls_146-231    H    0.59721007    0.83657004    0.00000000    0.21080000
opls_146-232    H    0.78917994    0.78917994    0.00000000    0.21080000
opls_146-233    H    0.21082006    0.21082006    0.00000000    0.21080000
opls_146-234    H    0.21082006    0.78917994    0.00000000    0.21080000
opls_146-235    H    0.78917994    0.21082006    0.00000000    0.21080000
opls_545-236    H    0.50000000    0.02751999    0.00000000    0.25270000
opls_545-237    H    0.50000000    0.97248001    0.00000000    0.25270000
opls_545-238    H    0.97248001    0.50000000    0.00000000    0.25270000
opls_545-239    H    0.02751999    0.50000000    0.00000000    0.25270000
opls_146-240    H    0.28893006    0.28893006    0.00000000    0.21080000
opls_146-241    H    0.71106994    0.71106994    0.00000000    0.21080000
opls_146-242    H    0.71106994    0.28893006    0.00000000    0.21080000
opls_146-243    H    0.28893006    0.71106994    0.00000000    0.21080000
opls_542-244    N    0.00000000    0.45110994    0.00000000    -0.36490000
opls_542-245    N    0.00000000    0.54889006    0.00000000    -0.36490000
opls_542-246    N    0.54889006    0.00000000    0.00000000    -0.36490000
opls_542-247    N    0.45110994    0.00000000    0.00000000    -0.36490000
opls_542-248    N    0.50000000    0.95048003    0.00000000    -0.29920000
opls_542-249    N    0.50000000    0.04951997    0.00000000    -0.29920000
opls_542-250    N    0.04951997    0.50000000    0.00000000    -0.29920000
opls_542-251    N    0.95048003    0.50000000    0.00000000    -0.29920000
