#======================================================================
# Crystal Data Generated By AuToFF
#----------------------------------------------------------------------

data_AuToFF_phase_1

_cell_length_a                         33.3327
_cell_length_b                         33.9197
_cell_length_c                         4.5339
_cell_angle_alpha                      90.00
_cell_angle_beta                       90.00
_cell_angle_gamma                      90.00
_symmetry_space_group_name_H-M_alt     'P 1'
_symmetry_space_group_IT_number        1

loop_
_space_group_symop_operation_xyz
   'x, y, z'

loop_
   _atom_site_label
   _atom_site_type_symbol
   _atom_site_fract_x
   _atom_site_fract_y
   _atom_site_fract_z
   _atom_site_charge
opls_543-0    C    0.42185992    0.47001005    0.34959968    0.17710000
opls_716-1    C    0.40300006    0.43500001    0.47690068    -0.17940000
opls_716-2    C    0.42954996    0.40691014    0.46583956    -0.20600000
opls_543-3    C    0.46580985    0.42387993    0.33644103    0.18510000
opls_700-4    C    0.40084002    0.50464008    0.29561084    -0.06820000
opls_700-5    C    0.49970989    0.40156988    0.27420102    -0.07040000
opls_543-6    C    0.53501997    0.41874014    0.17169986    0.19410000
opls_716-7    C    0.57045004    0.39797993    0.13695053    -0.20690000
opls_716-8    C    0.59843997    0.42422014    0.04628907    -0.20690000
opls_543-9    C    0.57908000    0.46008013    0.01595977    0.19420000
opls_700-10    C    0.59807006    0.49392005    0.91217936    -0.06870000
opls_543-11    C    0.57686986    0.52835992    0.85450054    0.17730000
opls_716-12    C    0.59567002    0.56333989    0.72648934    -0.20560000
opls_716-13    C    0.56912011    0.59139998    0.73631972    -0.20570000
opls_543-14    C    0.53288002    0.57443993    0.86583956    0.18390000
opls_700-15    C    0.49909998    0.59682987    0.92974040    -0.06770000
opls_543-16    C    0.46386011    0.57971002    0.03328922    0.19410000
opls_716-17    C    0.42860014    0.60060997    0.07121904    -0.20690000
opls_716-18    C    0.40066001    0.57443993    0.16370013    -0.20690000
opls_543-19    C    0.41989008    0.53846997    0.19179955    0.19410000
opls_700-20    C    0.64265001    0.49459989    0.87576921    0.06550000
opls_700-21    C    0.49689014    0.35777999    0.30194093    0.06440000
opls_700-22    C    0.35635007    0.50438005    0.33641015    0.06560000
opls_700-23    C    0.50218014    0.64064010    0.90545005    0.06280000
opls_145-24    C    0.52945996    0.66070012    0.08623922    -0.13120000
opls_145-25    C    0.53252992    0.70159996    0.07690950    -0.17350000
opls_145-26    C    0.50744014    0.72372987    0.88945941    0.18140000
opls_145-27    C    0.48093014    0.70363004    0.70200049    -0.17600000
opls_145-28    C    0.47859999    0.66237997    0.70702045    -0.13570000
opls_145-29    C    0.66237989    0.47007992    0.67199100    -0.13630000
opls_145-30    C    0.70426008    0.47114007    0.64639052    -0.18160000
opls_145-31    C    0.72662011    0.49803005    0.81517898    0.18580000
opls_145-32    C    0.70688993    0.52339997    0.00953925    -0.17570000
opls_145-33    C    0.66545014    0.52112990    0.04448929    -0.12400000
opls_145-34    C    0.33739991    0.52911995    0.54223075    -0.13270000
opls_145-35    C    0.29552001    0.52978004    0.56448091    -0.18170000
opls_145-36    C    0.27216997    0.50444992    0.38896976    0.19180000
opls_145-37    C    0.29115013    0.47824008    0.19657028    -0.16800000
opls_145-38    C    0.33278012    0.47871001    0.16604027    -0.12190000
opls_145-39    C    0.47021993    0.33715009    0.11959902    -0.11810000
opls_145-40    C    0.46820000    0.29612998    0.12783917    -0.17500000
opls_145-41    C    0.49329007    0.27460001    0.31919981    0.18310000
opls_145-42    C    0.51917996    0.29529005    0.50760052    -0.17420000
opls_145-43    C    0.52064999    0.33654012    0.50221002    -0.13300000
opls_142-44    C    0.52701011    0.78896010    0.06658065    0.06680000
opls_142-45    C    0.79326997    0.47079013    0.79524912    0.07360000
opls_142-46    C    0.47250988    0.20847000    0.16551975    0.06740000
opls_142-47    C    0.20775995    0.53669991    0.42753920    0.06710000
opls_700-48    C    0.47979012    0.16557988    0.16431990    0.05720000
opls_700-49    C    0.16390991    0.53463002    0.39338097    0.05070000
opls_700-50    C    0.52504988    0.83229009    0.04455105    0.05750000
opls_700-51    C    0.83679000    0.47755994    0.80398994    0.05080000
opls_145-52    C    0.86068005    0.45587992    0.99981032    -0.12420000
opls_145-53    C    0.90084992    0.46629009    0.04315049    -0.13570000
opls_700-54    C    0.91773004    0.49801001    0.88718984    0.06500000
opls_145-55    C    0.89486000    0.51684007    0.67134035    -0.14090000
opls_145-56    C    0.85428993    0.50773002    0.63592051    -0.12310000
opls_145-57    C    0.54919013    0.85496010    0.23242021    -0.12400000
opls_145-58    C    0.54706009    0.89597992    0.22648934    -0.13460000
opls_700-59    C    0.52212002    0.91533003    0.02579898    0.06960000
opls_145-60    C    0.49750995    0.89278001    0.83890911    -0.13560000
opls_145-61    C    0.49897998    0.85149987    0.84766095    -0.13540000
opls_145-62    C    0.14367993    0.56595990    0.25836035    -0.12450000
opls_145-63    C    0.10294006    0.56274997    0.19108935    -0.12110000
opls_700-64    C    0.08123014    0.52870986    0.26740996    0.06610000
opls_145-65    C    0.10138003    0.49791006    0.41284986    -0.13470000
opls_145-66    C    0.14240011    0.50068986    0.47359007    -0.13050000
opls_145-67    C    0.45860011    0.14177012    0.96503011    -0.12510000
opls_145-68    C    0.46726998    0.10159996    0.94191976    -0.12420000
opls_700-69    C    0.49702994    0.08450989    0.11953947    0.06500000
opls_145-70    C    0.51559010    0.10754989    0.33556100    -0.13050000
opls_145-71    C    0.50815986    0.14804995    0.35240080    -0.13290000
opls_700-72    C    0.03892994    0.52323989    0.17085952    0.00210000
opls_700-73    C    0.50606012    0.04198003    0.09318909    0.00340000
opls_700-74    C    0.51821005    0.95874993    0.03656896    0.00320000
opls_700-75    C    0.95953013    0.51012008    0.94796092    -0.00080000
opls_145-76    C    0.98987991    0.48170002    0.91386003    -0.13670000
opls_624-77    C    0.97030004    0.54624009    0.08348001    0.06380000
opls_624-78    C    0.55047986    0.98572010    0.00820927    0.06300000
opls_145-79    C    0.47995992    0.97453014    0.09241051    -0.13510000
opls_624-80    C    0.00812985    0.55165995    0.20397009    0.06470000
opls_145-81    C    0.02888005    0.48833009    0.01929024    -0.13320000
opls_145-82    C    0.47400991    0.01525013    0.12002911    -0.13560000
opls_624-83    C    0.54460995    0.02609988    0.03588081    0.06340000
opls_558-84    C    0.97136986    0.60157991    0.31547013    0.02820000
opls_558-85    C    0.60667003    0.01526989    0.93300911    0.05180000
opls_905-86    C    0.59176004    0.08607004    0.00773065    -0.33830000
opls_905-87    C    0.90703993    0.58944006    0.05598932    -0.34190000
opls_905-88    C    0.61262994    0.94272001    0.90702927    -0.33830000
opls_905-89    C    0.03718991    0.60121994    0.56862083    -0.33830000
opls_542-90    N    0.46065995    0.46274997    0.27660072    -0.40420000
opls_542-91    N    0.53983986    0.45722014    0.09567039    -0.40410000
opls_542-92    N    0.53805002    0.53559996    0.92659962    -0.40420000
opls_542-93    N    0.45900002    0.54119995    0.10880919    -0.40430000
opls_750-94    N    0.76928992    0.50081988    0.79037914    -0.31100000
opls_750-95    N    0.22921005    0.50506992    0.39563952    -0.36590000
opls_750-96    N    0.50774015    0.76621993    0.88394980    -0.34640000
opls_750-97    N    0.49509011    0.23218012    0.31816097    -0.35480000
opls_557-98    N    0.00829006    0.58616998    0.35504974    -0.01400000
opls_557-99    N    0.94754010    0.57836007    0.14871965    0.04000000
opls_557-100    N    0.58972000    0.97916992    0.94281083    -0.01310000
opls_557-101    N    0.58025002    0.04455995    0.98730894    0.04000000
opls_547-102    H    0.37277988    0.43165004    0.56014910    0.11550000
opls_547-103    H    0.42434006    0.37689985    0.53577935    0.11560000
opls_547-104    H    0.57619005    0.36704010    0.17411941    0.11520000
opls_547-105    H    0.62951996    0.41702993    0.00548093    0.11200000
opls_547-106    H    0.62593999    0.56679010    0.64545094    0.11560000
opls_547-107    H    0.57445001    0.62139995    0.66649904    0.11330000
opls_547-108    H    0.42301014    0.63160995    0.03577935    0.11500000
opls_547-109    H    0.36966012    0.58170002    0.20625951    0.11670000
opls_146-110    H    0.54854992    0.64451012    0.23556100    0.11810000
opls_146-111    H    0.55445013    0.71513015    0.21966078    0.11940000
opls_146-112    H    0.46188998    0.71999988    0.55221994    0.11110000
opls_146-113    H    0.45795990    0.64747005    0.56038069    0.11520000
opls_146-114    H    0.64538006    0.45005999    0.53465008    0.11550000
opls_146-115    H    0.71908996    0.45191998    0.48996890    0.11100000
opls_146-116    H    0.72383005    0.54431997    0.14008028    0.11140000
opls_146-117    H    0.65097007    0.54045997    0.20134101    0.11610000
opls_146-118    H    0.35505015    0.54835007    0.68125014    0.11570000
opls_146-119    H    0.28142995    0.54950987    0.72090033    0.11230000
opls_146-120    H    0.27349000    0.45857009    0.06040936    0.11250000
opls_146-121    H    0.34674989    0.45920011    0.00777035    0.11630000
opls_146-122    H    0.45130007    0.35295006    0.96652110    0.11470000
opls_146-123    H    0.44784011    0.28198009    0.97636031    0.09410000
opls_146-124    H    0.53852013    0.27934003    0.65789938    0.11140000
opls_146-125    H    0.54093998    0.35183006    0.64926002    0.11250000
opls_144-126    H    0.54463995    0.77679991    0.24431064    0.11630000
opls_144-127    H    0.78160995    0.44143993    0.83461920    0.10300000
opls_144-128    H    0.44893003    0.21956002    0.02487924    0.10970000
opls_144-129    H    0.22209002    0.56538000    0.43834006    0.09560000
opls_146-130    H    0.84770991    0.43249999    0.13178059    0.10940000
opls_146-131    H    0.91836005    0.45051990    0.20634994    0.11370000
opls_146-132    H    0.90820006    0.53958997    0.53998103    0.09150000
opls_146-133    H    0.83654999    0.52427999    0.47868943    0.11250000
opls_146-134    H    0.56903011    0.84091988    0.38979907    0.11070000
opls_146-135    H    0.56458013    0.91290990    0.37980988    0.09280000
opls_146-136    H    0.47725987    0.90718992    0.68608924    0.11400000
opls_146-137    H    0.47980992    0.83467012    0.70157921    0.11250000
opls_146-138    H    0.15978004    0.59228000    0.19273032    0.10810000
opls_146-139    H    0.08870989    0.58683007    0.07668894    0.11650000
opls_146-140    H    0.08553013    0.47124002    0.47319085    0.11100000
opls_146-141    H    0.15740009    0.47613010    0.57922098    0.11070000
opls_146-142    H    0.43627999    0.15448014    0.81966078    0.10940000
opls_146-143    H    0.45140988    0.08402993    0.77995986    0.11010000
opls_146-144    H    0.53597998    0.09390001    0.48857055    0.08820000
opls_146-145    H    0.52416996    0.16542010    0.51457906    0.11140000
opls_146-146    H    0.98310998    0.45372011    0.80987009    0.11010000
opls_146-147    H    0.45443993    0.95510986    0.11987913    0.10840000
opls_146-148    H    0.05133008    0.46573997    0.98325945    0.10950000
opls_146-149    H    0.44400004    0.02592004    0.16566973    0.10960000
opls_563-150    H    0.63838993    0.02012990    0.89162972    0.08610000
opls_140-151    H    0.59507001    0.09469011    0.24195946    0.09620000
opls_140-152    H    0.62133011    0.09088995    0.90131013    0.13370000
opls_140-153    H    0.56993013    0.10528012    0.89464920    0.16050000
opls_563-154    H    0.96176007    0.62941005    0.41028916    0.08430000
opls_140-155    H    0.90670003    0.59533015    0.81575024    0.09590000
opls_140-156    H    0.88502012    0.56641008    0.11584949    0.08850000
opls_140-157    H    0.89736985    0.61701990    0.16832969    0.15380000
opls_140-158    H    0.62335004    0.93235996    0.12526081    0.13300000
opls_140-159    H    0.59479010    0.91963991    0.79885970    0.11640000
opls_140-160    H    0.63934005    0.94803993    0.76555945    0.15540000
opls_140-161    H    0.05807990    0.62217001    0.46016013    0.13260000
opls_140-162    H    0.05362992    0.57643994    0.67006110    0.09180000
opls_140-163    H    0.02146991    0.61722008    0.74871082    0.15540000
F2_Co4+2-164    Co    0.49939009    0.49919015    0.10189903    0.65090000
opls_403-165    I    0.69371008    0.06899000    0.43749972    0.00300000
opls_403-166    I    0.96338010    0.69367005    0.89166060    0.00600000
