#======================================================================
# Crystal Data Generated By AuToFF
#----------------------------------------------------------------------

data_AuToFF_phase_1

_cell_length_a                         34.4382
_cell_length_b                         25.0203
_cell_length_c                         7.0791
_cell_angle_alpha                      90.00
_cell_angle_beta                       90.04
_cell_angle_gamma                      90.00
_symmetry_space_group_name_H-M_alt     'P 1'
_symmetry_space_group_IT_number        1

loop_
_space_group_symop_operation_xyz
   'x, y, z'

loop_
   _atom_site_label
   _atom_site_type_symbol
   _atom_site_fract_x
   _atom_site_fract_y
   _atom_site_fract_z
   _atom_site_charge
opls_145-0    C    0.42403005    0.47232008    0.07280021    -0.10310000
opls_145-1    C    0.39039009    0.55493020    0.12261022    -0.07250000
opls_700-2    C    0.35600987    0.52823987    0.17628936    0.02640000
opls_700-3    C    0.32162010    0.55684984    0.22339987    0.00930000
opls_700-4    C    0.28592998    0.52841013    0.23617974    0.03180000
opls_700-5    C    0.28615998    0.35896012    0.27251063    0.02930000
opls_700-6    C    0.32155995    0.38719999    0.25927025    0.03680000
opls_145-7    C    0.35636003    0.64110982    0.28915964    -0.07900000
opls_145-8    C    0.32234008    0.72324992    0.34209998    -0.13750000
opls_145-9    C    0.28751988    0.69606999    0.31613058    -0.07240000
opls_700-10    C    0.14345007    0.30436006    0.17017983    0.08590000
opls_142-11    C    0.39393989    0.27568015    0.34859940    0.10200000
opls_145-12    C    0.46364000    0.27469015    0.35456061    0.24060000
opls_145-13    C    0.00315996    0.30571016    0.14329929    -0.10780000
opls_145-14    C    0.96668010    0.28127001    0.14311989    -0.12990000
opls_145-15    C    0.92404986    0.97232008    0.42621943    -0.10300000
opls_145-16    C    0.89040000    0.05493020    0.37627947    -0.07250000
opls_700-17    C    0.85601005    0.02823987    0.32247037    0.02630000
opls_700-18    C    0.82162008    0.05684984    0.27524968    0.00990000
opls_700-19    C    0.78594002    0.02841013    0.26238929    0.03190000
opls_700-20    C    0.78616011    0.85896012    0.22604992    0.02930000
opls_700-21    C    0.82156001    0.88720999    0.23935952    0.03680000
opls_145-22    C    0.85635997    0.14110982    0.20949980    -0.07900000
opls_145-23    C    0.82232990    0.22323993    0.15649023    -0.13750000
opls_145-24    C    0.78750998    0.19606000    0.18242997    -0.07250000
opls_700-25    C    0.64345989    0.80437005    0.32815047    0.08580000
opls_142-26    C    0.89391992    0.77569014    0.15001059    0.10200000
opls_145-27    C    0.96361995    0.77471014    0.14398017    0.23280000
opls_145-28    C    0.50317002    0.80573015    0.35512989    -0.10780000
opls_145-29    C    0.46670008    0.78128999    0.35537003    -0.12990000
opls_145-30    C    0.07652001    0.47232008    0.42567982    -0.10630000
opls_145-31    C    0.11016985    0.55493020    0.37586981    -0.07250000
opls_700-32    C    0.14455007    0.52823987    0.32218926    0.02650000
opls_700-33    C    0.17893984    0.55684984    0.27508017    0.00930000
opls_700-34    C    0.21462008    0.52841013    0.26231018    0.03180000
opls_700-35    C    0.21439009    0.35896012    0.22596940    0.03020000
opls_700-36    C    0.17899011    0.38719999    0.23920979    0.03680000
opls_145-37    C    0.14419003    0.64110982    0.20932039    -0.07900000
opls_145-38    C    0.17820999    0.72324992    0.15638005    -0.13520000
opls_145-39    C    0.21304006    0.69606999    0.18235934    -0.07250000
opls_700-40    C    0.35710000    0.30436006    0.32830021    0.08580000
opls_142-41    C    0.10660988    0.27568015    0.14988063    0.10200000
opls_145-42    C    0.03691006    0.27469015    0.14391942    0.24060000
opls_145-43    C    0.49739998    0.30571016    0.35517933    -0.10780000
opls_145-44    C    0.53386997    0.28127001    0.35536014    -0.12980000
opls_145-45    C    0.57649992    0.97232008    0.07227049    -0.10300000
opls_145-46    C    0.61015007    0.05493020    0.12220056    -0.07250000
opls_700-47    C    0.64454002    0.02823987    0.17601955    0.02600000
opls_700-48    C    0.67893986    0.05684984    0.22324024    0.00930000
opls_700-49    C    0.71461991    0.02841013    0.23608933    0.03190000
opls_700-50    C    0.71438996    0.85896012    0.27244000    0.02930000
opls_700-51    C    0.67899993    0.88720999    0.25913040    0.03680000
opls_145-52    C    0.64419997    0.14110982    0.28899013    -0.07900000
opls_145-53    C    0.67823004    0.22323993    0.34198980    -0.13520000
opls_145-54    C    0.71304995    0.19606000    0.31605006    -0.07250000
opls_700-55    C    0.85708989    0.80437005    0.17033945    0.08550000
opls_142-56    C    0.60662985    0.77569014    0.34846944    0.10210000
opls_145-57    C    0.53692983    0.77471014    0.35449987    0.23270000
opls_145-58    C    0.99738005    0.80573015    0.14335014    -0.10780000
opls_145-59    C    0.03384998    0.78128999    0.14311000    -0.12990000
opls_700-60    C    0.25027997    0.55681986    0.24923931    0.03180000
opls_700-61    C    0.25027997    0.38628993    0.24923931    0.03180000
opls_700-62    C    0.75027997    0.05681986    0.24923931    0.03180000
opls_700-63    C    0.75027997    0.88628993    0.24923931    0.03180000
opls_145-64    C    0.57596995    0.47232008    0.92719979    -0.10310000
opls_145-65    C    0.60960991    0.55493020    0.87738978    -0.07250000
opls_700-66    C    0.64398984    0.52823987    0.82370923    0.02640000
opls_700-67    C    0.67837990    0.55684984    0.77660013    0.00930000
opls_700-68    C    0.71407002    0.52841013    0.76382026    0.03180000
opls_700-69    C    0.71384002    0.35896012    0.72748937    0.02930000
opls_700-70    C    0.67844005    0.38719999    0.74072975    0.03680000
opls_145-71    C    0.64363997    0.64110982    0.71084036    -0.07900000
opls_145-72    C    0.67765992    0.72324992    0.65790002    -0.13750000
opls_145-73    C    0.71247982    0.69606999    0.68386942    -0.07250000
opls_700-74    C    0.85654993    0.30436006    0.82982017    0.08580000
opls_142-75    C    0.60605982    0.27568015    0.65139919    0.10200000
opls_145-76    C    0.53636000    0.27469015    0.64543939    0.24060000
opls_145-77    C    0.99684004    0.30571016    0.85669930    -0.10780000
opls_145-78    C    0.03331990    0.28127001    0.85688011    -0.12990000
opls_145-79    C    0.07594985    0.97232008    0.57378057    -0.10300000
opls_145-80    C    0.10960000    0.05493020    0.62372053    -0.07250000
opls_700-81    C    0.14398995    0.02823987    0.67752963    0.02630000
opls_700-82    C    0.17837992    0.05684984    0.72475032    0.00990000
opls_700-83    C    0.21405998    0.02841013    0.73760930    0.03190000
opls_700-84    C    0.21383989    0.85896012    0.77395008    0.02930000
opls_700-85    C    0.17843999    0.88720999    0.76064048    0.03680000
opls_145-86    C    0.14364003    0.14110982    0.79050020    -0.07900000
opls_145-87    C    0.17766981    0.22323993    0.84350977    -0.13750000
opls_145-88    C    0.21249002    0.19606000    0.81757003    -0.07250000
opls_700-89    C    0.35653982    0.80437005    0.67184953    0.08580000
opls_142-90    C    0.10607979    0.77569014    0.84998941    0.10200000
opls_145-91    C    0.03638005    0.77471014    0.85601983    0.23270000
opls_145-92    C    0.49682998    0.80573015    0.64487011    -0.10780000
opls_145-93    C    0.53329992    0.78128999    0.64462997    -0.12990000
opls_145-94    C    0.92347999    0.47232008    0.57432018    -0.10630000
opls_145-95    C    0.88982986    0.55493020    0.62413019    -0.07250000
opls_700-96    C    0.85544993    0.52823987    0.67780933    0.02640000
opls_700-97    C    0.82105987    0.55684984    0.72491983    0.00930000
opls_700-98    C    0.78537992    0.52841013    0.73768982    0.03180000
opls_700-99    C    0.78560991    0.35896012    0.77402918    0.03020000
opls_700-100    C    0.82100989    0.38719999    0.76079021    0.03680000
opls_145-101    C    0.85580997    0.64110982    0.79067961    -0.07900000
opls_145-102    C    0.82179001    0.72324992    0.84361995    -0.13520000
opls_145-103    C    0.78695994    0.69606999    0.81763925    -0.07240000
opls_700-104    C    0.64290000    0.30436006    0.67169979    0.08580000
opls_142-105    C    0.89338983    0.27568015    0.85011937    0.10200000
opls_145-106    C    0.96308994    0.27469015    0.85607916    0.24060000
opls_145-107    C    0.50260002    0.30571016    0.64481926    -0.10780000
opls_145-108    C    0.46613003    0.28127001    0.64463986    -0.12990000
opls_145-109    C    0.42349979    0.97232008    0.92772951    -0.10300000
opls_145-110    C    0.38984993    0.05493020    0.87779944    -0.07250000
opls_700-111    C    0.35545998    0.02823987    0.82398045    0.02600000
opls_700-112    C    0.32105985    0.05684984    0.77675976    0.00930000
opls_700-113    C    0.28537980    0.02841013    0.76390925    0.03190000
opls_700-114    C    0.28561004    0.85896012    0.72756000    0.02930000
opls_700-115    C    0.32100007    0.88720999    0.74086960    0.03680000
opls_145-116    C    0.35580003    0.14110982    0.71100987    -0.07900000
opls_145-117    C    0.32176996    0.22323993    0.65801020    -0.13520000
opls_145-118    C    0.28695005    0.19606000    0.68394994    -0.07250000
opls_700-119    C    0.14290982    0.80437005    0.82965914    0.08550000
opls_142-120    C    0.39336986    0.77569014    0.65153056    0.10200000
opls_145-121    C    0.46306988    0.77471014    0.64550013    0.23270000
opls_145-122    C    0.00261995    0.80573015    0.85664986    -0.10780000
opls_145-123    C    0.96615002    0.78128999    0.85689000    -0.12990000
opls_700-124    C    0.74972003    0.55681986    0.75075928    0.03180000
opls_700-125    C    0.74972003    0.38628993    0.75075928    0.03180000
opls_700-126    C    0.24972003    0.05681986    0.75075928    0.03180000
opls_700-127    C    0.24972003    0.88628993    0.75075928    0.03180000
opls_145-128    C    0.57596995    0.52767992    0.92719979    -0.10310000
opls_145-129    C    0.60960991    0.44506980    0.87738978    -0.07250000
opls_700-130    C    0.64398984    0.47176013    0.82370923    0.02640000
opls_700-131    C    0.67837990    0.44315016    0.77660013    0.00930000
opls_700-132    C    0.71407002    0.47158987    0.76382026    0.03180000
opls_700-133    C    0.71384002    0.64103988    0.72748937    0.02930000
opls_700-134    C    0.67844005    0.61280001    0.74072975    0.03680000
opls_145-135    C    0.64363997    0.35889018    0.71084036    -0.07900000
opls_145-136    C    0.67765992    0.27675008    0.65790002    -0.13750000
opls_145-137    C    0.71247982    0.30393001    0.68386942    -0.07250000
opls_700-138    C    0.85654993    0.69563994    0.82982017    0.08580000
opls_142-139    C    0.60605982    0.72431985    0.65139919    0.10200000
opls_145-140    C    0.53636000    0.72530985    0.64543939    0.24060000
opls_145-141    C    0.99684004    0.69428984    0.85669930    -0.10780000
opls_145-142    C    0.03331990    0.71872999    0.85688011    -0.12990000
opls_145-143    C    0.07594985    0.02767992    0.57378057    -0.10300000
opls_145-144    C    0.10960000    0.94506980    0.62372053    -0.07250000
opls_700-145    C    0.14398995    0.97176013    0.67752963    0.02630000
opls_700-146    C    0.17837992    0.94315016    0.72475032    0.00990000
opls_700-147    C    0.21405998    0.97158987    0.73760930    0.03190000
opls_700-148    C    0.21383989    0.14103988    0.77395008    0.02930000
opls_700-149    C    0.17843999    0.11279001    0.76064048    0.03680000
opls_145-150    C    0.14364003    0.85889018    0.79050020    -0.07890000
opls_145-151    C    0.17766981    0.77676007    0.84350977    -0.13750000
opls_145-152    C    0.21249002    0.80394000    0.81757003    -0.07250000
opls_700-153    C    0.35653982    0.19562995    0.67184953    0.08580000
opls_142-154    C    0.10607979    0.22430986    0.84998941    0.10200000
opls_145-155    C    0.03638005    0.22528986    0.85601983    0.23270000
opls_145-156    C    0.49682998    0.19426985    0.64487011    -0.10780000
opls_145-157    C    0.53329992    0.21871001    0.64462997    -0.12990000
opls_145-158    C    0.92347999    0.52767992    0.57432018    -0.10620000
opls_145-159    C    0.88982986    0.44506980    0.62413019    -0.07250000
opls_700-160    C    0.85544993    0.47176013    0.67780933    0.02640000
opls_700-161    C    0.82105987    0.44315016    0.72491983    0.00930000
opls_700-162    C    0.78537992    0.47158987    0.73768982    0.03180000
opls_700-163    C    0.78560991    0.64103988    0.77402918    0.03020000
opls_700-164    C    0.82100989    0.61280001    0.76079021    0.03680000
opls_145-165    C    0.85580997    0.35889018    0.79067961    -0.07890000
opls_145-166    C    0.82179001    0.27675008    0.84361995    -0.13520000
opls_145-167    C    0.78695994    0.30393001    0.81763925    -0.07250000
opls_700-168    C    0.64290000    0.69563994    0.67169979    0.08580000
opls_142-169    C    0.89338983    0.72431985    0.85011937    0.10200000
opls_145-170    C    0.96308994    0.72530985    0.85607916    0.24070000
opls_145-171    C    0.50260002    0.69428984    0.64481926    -0.10780000
opls_145-172    C    0.46613003    0.71872999    0.64463986    -0.12990000
opls_145-173    C    0.42349979    0.02767992    0.92772951    -0.10300000
opls_145-174    C    0.38984993    0.94506980    0.87779944    -0.07240000
opls_700-175    C    0.35545998    0.97176013    0.82398045    0.02600000
opls_700-176    C    0.32105985    0.94315016    0.77675976    0.00930000
opls_700-177    C    0.28537980    0.97158987    0.76390925    0.03190000
opls_700-178    C    0.28561004    0.14103988    0.72756000    0.02930000
opls_700-179    C    0.32100007    0.11279001    0.74086960    0.03690000
opls_145-180    C    0.35580003    0.85889018    0.71100987    -0.07900000
opls_145-181    C    0.32176996    0.77676007    0.65801020    -0.13520000
opls_145-182    C    0.28695005    0.80394000    0.68394994    -0.07250000
opls_700-183    C    0.14290982    0.19562995    0.82965914    0.08550000
opls_142-184    C    0.39336986    0.22430986    0.65153056    0.10200000
opls_145-185    C    0.46306988    0.22528986    0.64550013    0.23270000
opls_145-186    C    0.00261995    0.19426985    0.85664986    -0.10780000
opls_145-187    C    0.96615002    0.21871001    0.85689000    -0.12990000
opls_700-188    C    0.74972003    0.44318014    0.75075928    0.03180000
opls_700-189    C    0.74972003    0.61371007    0.75075928    0.03180000
opls_700-190    C    0.24972003    0.94318014    0.75075928    0.03180000
opls_700-191    C    0.24972003    0.11371007    0.75075928    0.03180000
opls_145-192    C    0.42403005    0.52767992    0.07280021    -0.10310000
opls_145-193    C    0.39039009    0.44506980    0.12261022    -0.07250000
opls_700-194    C    0.35600987    0.47176013    0.17628936    0.02640000
opls_700-195    C    0.32162010    0.44315016    0.22339987    0.00930000
opls_700-196    C    0.28592998    0.47158987    0.23617974    0.03180000
opls_700-197    C    0.28615998    0.64103988    0.27251063    0.02930000
opls_700-198    C    0.32155995    0.61280001    0.25927025    0.03680000
opls_145-199    C    0.35636003    0.35889018    0.28915964    -0.07900000
opls_145-200    C    0.32234008    0.27675008    0.34209998    -0.13750000
opls_145-201    C    0.28751988    0.30393001    0.31613058    -0.07250000
opls_700-202    C    0.14345007    0.69563994    0.17017983    0.08580000
opls_142-203    C    0.39393989    0.72431985    0.34859940    0.10200000
opls_145-204    C    0.46364000    0.72530985    0.35456061    0.24080000
opls_145-205    C    0.00315996    0.69428984    0.14329929    -0.10780000
opls_145-206    C    0.96668010    0.71872999    0.14311989    -0.12990000
opls_145-207    C    0.92404986    0.02767992    0.42621943    -0.10300000
opls_145-208    C    0.89040000    0.94506980    0.37627947    -0.07250000
opls_700-209    C    0.85601005    0.97176013    0.32247037    0.02630000
opls_700-210    C    0.82162008    0.94315016    0.27524968    0.00990000
opls_700-211    C    0.78594002    0.97158987    0.26238929    0.03190000
opls_700-212    C    0.78616011    0.14103988    0.22604992    0.02940000
opls_700-213    C    0.82156001    0.11279001    0.23935952    0.03680000
opls_145-214    C    0.85635997    0.85889018    0.20949980    -0.07890000
opls_145-215    C    0.82232990    0.77676007    0.15649023    -0.13750000
opls_145-216    C    0.78750998    0.80394000    0.18242997    -0.07250000
opls_700-217    C    0.64345989    0.19562995    0.32815047    0.08580000
opls_142-218    C    0.89391992    0.22430986    0.15001059    0.10200000
opls_145-219    C    0.96361995    0.22528986    0.14398017    0.23290000
opls_145-220    C    0.50317002    0.19426985    0.35512989    -0.10780000
opls_145-221    C    0.46670008    0.21871001    0.35537003    -0.12990000
opls_145-222    C    0.07652001    0.52767992    0.42567982    -0.10630000
opls_145-223    C    0.11016985    0.44506980    0.37586981    -0.07250000
opls_700-224    C    0.14455007    0.47176013    0.32218926    0.02640000
opls_700-225    C    0.17893984    0.44315016    0.27508017    0.00930000
opls_700-226    C    0.21462008    0.47158987    0.26231018    0.03180000
opls_700-227    C    0.21439009    0.64103988    0.22596940    0.03020000
opls_700-228    C    0.17899011    0.61280001    0.23920979    0.03680000
opls_145-229    C    0.14419003    0.35889018    0.20932039    -0.07900000
opls_145-230    C    0.17820999    0.27675008    0.15638005    -0.13520000
opls_145-231    C    0.21304006    0.30393001    0.18235934    -0.07250000
opls_700-232    C    0.35710000    0.69563994    0.32830021    0.08580000
opls_142-233    C    0.10660988    0.72431985    0.14988063    0.10200000
opls_145-234    C    0.03691006    0.72530985    0.14391942    0.24070000
opls_145-235    C    0.49739998    0.69428984    0.35517933    -0.10780000
opls_145-236    C    0.53386997    0.71872999    0.35536014    -0.12990000
opls_145-237    C    0.57649992    0.02767992    0.07227049    -0.10290000
opls_145-238    C    0.61015007    0.94506980    0.12220056    -0.07250000
opls_700-239    C    0.64454002    0.97176013    0.17601955    0.02600000
opls_700-240    C    0.67893986    0.94315016    0.22324024    0.00930000
opls_700-241    C    0.71461991    0.97158987    0.23608933    0.03190000
opls_700-242    C    0.71438996    0.14103988    0.27244000    0.02930000
opls_700-243    C    0.67899993    0.11279001    0.25913040    0.03680000
opls_145-244    C    0.64419997    0.85889018    0.28899013    -0.07900000
opls_145-245    C    0.67823004    0.77676007    0.34198980    -0.13520000
opls_145-246    C    0.71304995    0.80394000    0.31605006    -0.07250000
opls_700-247    C    0.85708989    0.19562995    0.17033945    0.08550000
opls_142-248    C    0.60662985    0.22430986    0.34846944    0.10210000
opls_145-249    C    0.53692983    0.22528986    0.35449987    0.23280000
opls_145-250    C    0.99738005    0.19426985    0.14335014    -0.10780000
opls_145-251    C    0.03384998    0.21871001    0.14311000    -0.12990000
opls_700-252    C    0.25027997    0.44318014    0.24923931    0.03180000
opls_700-253    C    0.25027997    0.61371007    0.24923931    0.03180000
opls_700-254    C    0.75027997    0.94318014    0.24923931    0.03180000
opls_700-255    C    0.75027997    0.11371007    0.24923931    0.03180000
opls_750-256    N    0.42679991    0.30092005    0.34403950    -0.27470000
opls_750-257    N    0.92677995    0.80094004    0.15454931    -0.27470000
opls_750-258    N    0.07376003    0.30092005    0.15445042    -0.27470000
opls_750-259    N    0.57376983    0.80094004    0.34392931    -0.27470000
opls_750-260    N    0.57319980    0.30092005    0.65596050    -0.27470000
opls_750-261    N    0.07322005    0.80094004    0.84544928    -0.27470000
opls_750-262    N    0.92623997    0.30092005    0.84554958    -0.27460000
opls_750-263    N    0.42622988    0.80094004    0.65606927    -0.27470000
opls_750-264    N    0.57319980    0.69907995    0.65596050    -0.27470000
opls_750-265    N    0.07322005    0.19905996    0.84544928    -0.27470000
opls_750-266    N    0.92623997    0.69907995    0.84554958    -0.27470000
opls_750-267    N    0.42622988    0.19905996    0.65606927    -0.27470000
opls_750-268    N    0.42679991    0.69907995    0.34403950    -0.27460000
opls_750-269    N    0.92677995    0.19905996    0.15454931    -0.27450000
opls_750-270    N    0.07376003    0.69907995    0.15445042    -0.27460000
opls_750-271    N    0.57376983    0.19905996    0.34392931    -0.27460000
opls_146-272    H    0.45128007    0.44911012    0.03246034    0.05090000
opls_146-273    H    0.39122997    0.60047002    0.11901937    0.05090000
opls_146-274    H    0.38540996    0.61936987    0.28171943    0.05090000
opls_146-275    H    0.32212993    0.76788008    0.37445014    0.05090000
opls_146-276    H    0.25874983    0.71825997    0.32992047    0.05090000
opls_144-277    H    0.39342996    0.23048005    0.36865986    0.03000000
opls_146-278    H    0.00550005    0.35116006    0.14294049    0.05090000
opls_146-279    H    0.93924998    0.30678009    0.14226950    0.05090000
opls_146-280    H    0.95147986    0.94954017    0.46691952    0.05090000
opls_146-281    H    0.89123993    0.10047002    0.37987032    0.05090000
opls_146-282    H    0.88541007    0.11937986    0.21698945    0.05090000
opls_146-283    H    0.82211000    0.26787009    0.12412030    0.05090000
opls_146-284    H    0.75873987    0.21824998    0.16861042    0.05090000
opls_144-285    H    0.89341006    0.73049004    0.12995013    0.03000000
opls_146-286    H    0.50550003    0.85118004    0.35545055    0.05090000
opls_146-287    H    0.43926990    0.80679009    0.35623031    0.05090000
opls_146-288    H    0.04926999    0.44911012    0.46600980    0.05090000
opls_146-289    H    0.10932997    0.60047002    0.37947055    0.05090000
opls_146-290    H    0.11587001    0.61765007    0.21820005    0.05090000
opls_146-291    H    0.17842013    0.76788008    0.12402000    0.05100000
opls_146-292    H    0.24181012    0.71825997    0.16857934    0.05090000
opls_144-293    H    0.10655009    0.23048005    0.12970010    0.03000000
opls_146-294    H    0.49525009    0.35118004    0.35553955    0.05090000
opls_146-295    H    0.56130008    0.30677010    0.35621054    0.05090000
opls_146-296    H    0.54906992    0.94954017    0.03158029    0.05090000
opls_146-297    H    0.60931013    0.10047002    0.11858993    0.05090000
opls_146-298    H    0.61588985    0.11764008    0.28004972    0.05090000
opls_146-299    H    0.67844994    0.26787009    0.37434985    0.05090000
opls_146-300    H    0.74182007    0.21824998    0.32985973    0.05090000
opls_144-301    H    0.60657001    0.73049004    0.36864008    0.03000000
opls_146-302    H    0.99523007    0.85120003    0.14302948    0.05090000
opls_146-303    H    0.06127988    0.80679009    0.14224972    0.05090000
opls_146-304    H    0.54871993    0.44911012    0.96753966    0.05090000
opls_146-305    H    0.60877003    0.60047002    0.88097922    0.05090000
opls_146-306    H    0.61459004    0.61936987    0.71827916    0.05090000
opls_146-307    H    0.67787007    0.76788008    0.62554986    0.05090000
opls_146-308    H    0.74124988    0.71825997    0.67007953    0.05090000
opls_144-309    H    0.60657004    0.23048005    0.63134014    0.03000000
opls_146-310    H    0.99449995    0.35116006    0.85705951    0.05090000
opls_146-311    H    0.06075002    0.30678009    0.85773050    0.05090000
opls_146-312    H    0.04851985    0.94954017    0.53308048    0.05090000
opls_146-313    H    0.10876007    0.10047002    0.62012968    0.05090000
opls_146-314    H    0.11458993    0.11937986    0.78301055    0.05090000
opls_146-315    H    0.17789000    0.26787009    0.87587970    0.05100000
opls_146-316    H    0.24125984    0.21824998    0.83138958    0.05090000
opls_144-317    H    0.10658994    0.73049004    0.87004987    0.03000000
opls_146-318    H    0.49449997    0.85118004    0.64454945    0.05090000
opls_146-319    H    0.56072981    0.80679009    0.64376969    0.05090000
opls_146-320    H    0.95073001    0.44911012    0.53399020    0.05090000
opls_146-321    H    0.89067003    0.60047002    0.62052945    0.05090000
opls_146-322    H    0.88412999    0.61765007    0.78179995    0.05090000
opls_146-323    H    0.82157987    0.76788008    0.87598000    0.05090000
opls_146-324    H    0.75818988    0.71825997    0.83141925    0.05090000
opls_144-325    H    0.89344991    0.23048005    0.87029990    0.03000000
opls_146-326    H    0.50474991    0.35118004    0.64446045    0.05090000
opls_146-327    H    0.43869992    0.30677010    0.64378946    0.05090000
opls_146-328    H    0.45092979    0.94954017    0.96841971    0.05090000
opls_146-329    H    0.39068987    0.10047002    0.88141007    0.05100000
opls_146-330    H    0.38410986    0.11764008    0.71995028    0.05090000
opls_146-331    H    0.32155006    0.26787009    0.62565015    0.05090000
opls_146-332    H    0.25817993    0.21824998    0.67014027    0.05090000
opls_144-333    H    0.39342999    0.73049004    0.63135992    0.03000000
opls_146-334    H    0.00476993    0.85120003    0.85697052    0.05090000
opls_146-335    H    0.93871983    0.80679009    0.85775028    0.05090000
opls_146-336    H    0.54871993    0.55088988    0.96753966    0.05090000
opls_146-337    H    0.60877003    0.39952998    0.88097922    0.05090000
opls_146-338    H    0.61459004    0.38063013    0.71827916    0.05090000
opls_146-339    H    0.67787007    0.23211992    0.62554986    0.05090000
opls_146-340    H    0.74124988    0.28174003    0.67007953    0.05090000
opls_144-341    H    0.60657004    0.76951995    0.63134014    0.03000000
opls_146-342    H    0.99449995    0.64883994    0.85705951    0.05090000
opls_146-343    H    0.06075002    0.69321991    0.85773050    0.05090000
opls_146-344    H    0.04851985    0.05045983    0.53308048    0.05090000
opls_146-345    H    0.10876007    0.89952998    0.62012968    0.05090000
opls_146-346    H    0.11458993    0.88062014    0.78301055    0.05090000
opls_146-347    H    0.17789000    0.73212991    0.87587970    0.05090000
opls_146-348    H    0.24125984    0.78175002    0.83138958    0.05090000
opls_144-349    H    0.10658994    0.26950996    0.87004987    0.03000000
opls_146-350    H    0.49449997    0.14881996    0.64454945    0.05090000
opls_146-351    H    0.56072981    0.19320991    0.64376969    0.05100000
opls_146-352    H    0.95073001    0.55088988    0.53399020    0.05090000
opls_146-353    H    0.89067003    0.39952998    0.62052945    0.05090000
opls_146-354    H    0.88412999    0.38234993    0.78179995    0.05090000
opls_146-355    H    0.82157987    0.23211992    0.87598000    0.05090000
opls_146-356    H    0.75818988    0.28174003    0.83141925    0.05090000
opls_144-357    H    0.89344991    0.76951995    0.87029990    0.03000000
opls_146-358    H    0.50474991    0.64881996    0.64446045    0.05090000
opls_146-359    H    0.43869992    0.69322990    0.64378946    0.05090000
opls_146-360    H    0.45092979    0.05045983    0.96841971    0.05090000
opls_146-361    H    0.39068987    0.89952998    0.88141007    0.05090000
opls_146-362    H    0.38410986    0.88235992    0.71995028    0.05090000
opls_146-363    H    0.32155006    0.73212991    0.62565015    0.05100000
opls_146-364    H    0.25817993    0.78175002    0.67014027    0.05090000
opls_144-365    H    0.39342999    0.26950996    0.63135992    0.03000000
opls_146-366    H    0.00476993    0.14879997    0.85697052    0.05090000
opls_146-367    H    0.93871983    0.19320991    0.85775028    0.05090000
opls_146-368    H    0.45128007    0.55088988    0.03246034    0.05090000
opls_146-369    H    0.39122997    0.39952998    0.11901937    0.05090000
opls_146-370    H    0.38540996    0.38063013    0.28171943    0.05090000
opls_146-371    H    0.32212993    0.23211992    0.37445014    0.05090000
opls_146-372    H    0.25874983    0.28174003    0.32992047    0.05090000
opls_144-373    H    0.39342996    0.76951995    0.36865986    0.03000000
opls_146-374    H    0.00550005    0.64883994    0.14294049    0.05090000
opls_146-375    H    0.93924998    0.69321991    0.14226950    0.05090000
opls_146-376    H    0.95147986    0.05045983    0.46691952    0.05100000
opls_146-377    H    0.89123993    0.89952998    0.37987032    0.05090000
opls_146-378    H    0.88541007    0.88062014    0.21698945    0.05090000
opls_146-379    H    0.82211000    0.73212991    0.12412030    0.05090000
opls_146-380    H    0.75873987    0.78175002    0.16861042    0.05090000
opls_144-381    H    0.89341006    0.26950996    0.12995013    0.03000000
opls_146-382    H    0.50550003    0.14881996    0.35545055    0.05090000
opls_146-383    H    0.43926990    0.19320991    0.35623031    0.05090000
opls_146-384    H    0.04926999    0.55088988    0.46600980    0.05090000
opls_146-385    H    0.10932997    0.39952998    0.37947055    0.05090000
opls_146-386    H    0.11587001    0.38234993    0.21820005    0.05100000
opls_146-387    H    0.17842013    0.23211992    0.12402000    0.05090000
opls_146-388    H    0.24181012    0.28174003    0.16857934    0.05090000
opls_144-389    H    0.10655009    0.76951995    0.12970010    0.03000000
opls_146-390    H    0.49525009    0.64881996    0.35553955    0.05090000
opls_146-391    H    0.56130008    0.69322990    0.35621054    0.05090000
opls_146-392    H    0.54906992    0.05045983    0.03158029    0.05090000
opls_146-393    H    0.60931013    0.89952998    0.11858993    0.05090000
opls_146-394    H    0.61588985    0.88235992    0.28004972    0.05090000
opls_146-395    H    0.67844994    0.73212991    0.37434985    0.05090000
opls_146-396    H    0.74182007    0.78175002    0.32985973    0.05090000
opls_144-397    H    0.60657001    0.26950996    0.36864008    0.03000000
opls_146-398    H    0.99523007    0.14879997    0.14302948    0.05090000
opls_146-399    H    0.06127988    0.19320991    0.14224972    0.05090000
