#======================================================================
# Crystal Data Generated By AuToFF
#----------------------------------------------------------------------

data_AuToFF_phase_1

_cell_length_a                         59.3600
_cell_length_b                         59.3600
_cell_length_c                         3.5200
_cell_angle_alpha                      90.00
_cell_angle_beta                       90.00
_cell_angle_gamma                      120.00
_symmetry_space_group_name_H-M_alt     'P 1'
_symmetry_space_group_IT_number        1

loop_
_space_group_symop_operation_xyz
   'x, y, z'

loop_
   _atom_site_label
   _atom_site_type_symbol
   _atom_site_fract_x
   _atom_site_fract_y
   _atom_site_fract_z
   _atom_site_charge
opls_700-0    C    0.01435994    0.50809992    0.50000000    0.07510000
opls_522-1    C    0.02994001    0.49657004    0.50000000    -0.12180000
opls_521-2    C    0.05696992    0.51216997    0.50000000    0.06380000
opls_521-3    C    0.05358004    0.55017996    0.50000000    0.06380000
opls_522-4    C    0.02649989    0.53525990    0.50000000    -0.12180000
opls_521-5    C    0.09655997    0.55445990    0.50000000    0.18800000
opls_522-6    C    0.11223996    0.54290006    0.50000000    -0.14710000
opls_523-7    C    0.13931995    0.55818000    0.50000000    -0.10230000
opls_700-8    C    0.15123005    0.58533005    0.50000000    0.07020000
opls_523-9    C    0.13587010    0.59704007    0.50000000    -0.10050000
opls_522-10    C    0.10877990    0.58175993    0.50000000    -0.14690000
opls_142-11    C    0.17959006    0.60183005    0.50000000    0.09320000
opls_145-12    C    0.22243996    0.60733005    0.50000000    0.22150000
opls_145-13    C    0.23709999    0.59484991    0.50000000    -0.12180000
opls_145-14    C    0.26423994    0.60937004    0.50000000    -0.08180000
opls_700-15    C    0.27717997    0.63665003    0.50000000    0.08080000
opls_145-16    C    0.26237000    0.64910994    0.50000000    -0.10220000
opls_145-17    C    0.23524993    0.63459993    0.50000000    -0.14700000
opls_700-18    C    0.30594001    0.65202996    0.50000000    0.08170000
opls_145-19    C    0.32072992    0.63958989    0.50000000    -0.08910000
opls_700-20    C    0.49190000    0.50625991    0.50000000    0.07510000
opls_522-21    C    0.50342989    0.53336989    0.50000000    -0.12180000
opls_521-22    C    0.48782991    0.54479999    0.50000000    0.06380000
opls_521-23    C    0.44981995    0.50340001    0.50000000    0.06380000
opls_522-24    C    0.46473997    0.49124005    0.50000000    -0.12180000
opls_521-25    C    0.44554005    0.54209998    0.50000000    0.18800000
opls_522-26    C    0.45709987    0.56933990    0.50000000    -0.14710000
opls_523-27    C    0.44181999    0.58113998    0.50000000    -0.10230000
opls_700-28    C    0.41466997    0.56589992    0.50000000    0.07020000
opls_523-29    C    0.40295999    0.53883001    0.50000000    -0.10050000
opls_522-30    C    0.41823996    0.52702001    0.50000000    -0.14690000
opls_142-31    C    0.39816988    0.57775992    0.50000000    0.09320000
opls_145-32    C    0.39267000    0.61510989    0.50000000    0.22150000
opls_145-33    C    0.40514994    0.64225002    0.50000000    -0.12180000
opls_145-34    C    0.39063009    0.65487002    0.50000000    -0.08180000
opls_700-35    C    0.36335009    0.64053003    0.50000000    0.08080000
opls_145-36    C    0.35088992    0.61325995    0.50000000    -0.10220000
opls_145-37    C    0.36540000    0.60065006    0.50000000    -0.14700000
opls_700-38    C    0.34797001    0.65391004    0.50000000    0.08170000
opls_145-39    C    0.36040998    0.68114004    0.50000000    -0.08910000
opls_700-40    C    0.49373996    0.98563997    0.50000000    0.07510000
opls_522-41    C    0.46663001    0.97005988    0.50000000    -0.12180000
opls_521-42    C    0.45519999    0.94303004    0.50000000    0.06380000
opls_521-43    C    0.49660001    0.94642003    0.50000000    0.06380000
opls_522-44    C    0.50875997    0.97350005    0.50000000    -0.12180000
opls_521-45    C    0.45789988    0.90343992    0.50000000    0.18800000
opls_522-46    C    0.43066001    0.88776004    0.50000000    -0.14710000
opls_523-47    C    0.41886006    0.86068002    0.50000000    -0.10230000
opls_700-48    C    0.43409997    0.84877003    0.50000000    0.07020000
opls_523-49    C    0.46116991    0.86412992    0.50000000    -0.10050000
opls_522-50    C    0.47297997    0.89122006    0.50000000    -0.14690000
opls_142-51    C    0.42224006    0.82041003    0.50000000    0.09320000
opls_145-52    C    0.38489004    0.77756006    0.50000000    0.22150000
opls_145-53    C    0.35774997    0.76289988    0.50000000    -0.12180000
opls_145-54    C    0.34512997    0.73575994    0.50000000    -0.08180000
opls_700-55    C    0.35946994    0.72281994    0.50000000    0.08080000
opls_145-56    C    0.38673999    0.73762991    0.50000000    -0.10220000
opls_145-57    C    0.39935007    0.76475001    0.50000000    -0.14700000
opls_700-58    C    0.34608997    0.69406000    0.50000000    0.08170000
opls_145-59    C    0.31886001    0.67926988    0.50000000    -0.08910000
opls_700-60    C    0.98564006    0.49190008    0.50000000    0.07510000
opls_522-61    C    0.97005999    0.50342996    0.50000000    -0.12180000
opls_521-62    C    0.94303008    0.48783003    0.50000000    0.06380000
opls_521-63    C    0.94641996    0.44982004    0.50000000    0.06380000
opls_522-64    C    0.97350001    0.46473991    0.50000000    -0.12180000
opls_521-65    C    0.90343993    0.44553990    0.50000000    0.18800000
opls_522-66    C    0.88776004    0.45709994    0.50000000    -0.14710000
opls_523-67    C    0.86068005    0.44182000    0.50000000    -0.10230000
opls_700-68    C    0.84876995    0.41466995    0.50000000    0.07020000
opls_523-69    C    0.86412990    0.40295993    0.50000000    -0.10050000
opls_522-70    C    0.89122010    0.41824007    0.50000000    -0.14680000
opls_142-71    C    0.82040994    0.39816995    0.50000000    0.09320000
opls_145-72    C    0.77756004    0.39266995    0.50000000    0.22150000
opls_145-73    C    0.76289991    0.40514989    0.50000000    -0.12180000
opls_145-74    C    0.73576006    0.39062996    0.50000000    -0.08180000
opls_700-75    C    0.72282003    0.36334997    0.50000000    0.08080000
opls_145-76    C    0.73763000    0.35089006    0.50000000    -0.10220000
opls_145-77    C    0.76475007    0.36540007    0.50000000    -0.14700000
opls_700-78    C    0.69405999    0.34797004    0.50000000    0.08170000
opls_145-79    C    0.67926999    0.36040992    0.50000000    -0.08910000
opls_700-80    C    0.50809990    0.49373989    0.50000000    0.07510000
opls_522-81    C    0.49657001    0.46662991    0.50000000    -0.12180000
opls_521-82    C    0.51217009    0.45520001    0.50000000    0.06380000
opls_521-83    C    0.55018005    0.49659999    0.50000000    0.06380000
opls_522-84    C    0.53526003    0.50875995    0.50000000    -0.12180000
opls_521-85    C    0.55445995    0.45790002    0.50000000    0.18800000
opls_522-86    C    0.54290003    0.43065990    0.50000000    -0.14710000
opls_523-87    C    0.55818001    0.41886002    0.50000000    -0.10230000
opls_700-88    C    0.58533003    0.43410008    0.50000000    0.07020000
opls_523-89    C    0.59704001    0.46116999    0.50000000    -0.10050000
opls_522-90    C    0.58176004    0.47297999    0.50000000    -0.14690000
opls_142-91    C    0.60183002    0.42223989    0.50000000    0.09330000
opls_145-92    C    0.60732990    0.38488992    0.50000000    0.22160000
opls_145-93    C    0.59485006    0.35774998    0.50000000    -0.12180000
opls_145-94    C    0.60936991    0.34512998    0.50000000    -0.08180000
opls_700-95    C    0.63664991    0.35946997    0.50000000    0.08080000
opls_145-96    C    0.64911008    0.38674005    0.50000000    -0.10220000
opls_145-97    C    0.63460000    0.39934994    0.50000000    -0.14700000
opls_700-98    C    0.65202999    0.34608996    0.50000000    0.08170000
opls_145-99    C    0.63959002    0.31885996    0.50000000    -0.08910000
opls_700-100    C    0.50626004    0.01436003    0.50000000    0.07510000
opls_522-101    C    0.53336990    0.02993993    0.50000000    -0.12170000
opls_521-102    C    0.54480001    0.05696996    0.50000000    0.06380000
opls_521-103    C    0.50339999    0.05357997    0.50000000    0.06380000
opls_522-104    C    0.49124003    0.02649995    0.50000000    -0.12180000
opls_521-105    C    0.54210012    0.09656008    0.50000000    0.18800000
opls_522-106    C    0.56933999    0.11223996    0.50000000    -0.14710000
opls_523-107    C    0.58113994    0.13931998    0.50000000    -0.10230000
opls_700-108    C    0.56590003    0.15122997    0.50000000    0.07030000
opls_523-109    C    0.53883009    0.13587008    0.50000000    -0.10050000
opls_522-110    C    0.52702003    0.10877994    0.50000000    -0.14690000
opls_142-111    C    0.57775994    0.17958997    0.50000000    0.09320000
opls_145-112    C    0.61510996    0.22243994    0.50000000    0.22150000
opls_145-113    C    0.64224993    0.23709993    0.50000000    -0.12180000
opls_145-114    C    0.65487003    0.26424006    0.50000000    -0.08180000
opls_700-115    C    0.64053006    0.27718006    0.50000000    0.08080000
opls_145-116    C    0.61325991    0.26236989    0.50000000    -0.10220000
opls_145-117    C    0.60064993    0.23524999    0.50000000    -0.14700000
opls_700-118    C    0.65391003    0.30594000    0.50000000    0.08170000
opls_145-119    C    0.68113990    0.32072993    0.50000000    -0.08900000
opls_239-120    N    0.06855001    0.53866000    0.50000000    0.01460000
opls_750-121    N    0.19467008    0.59189002    0.50000000    -0.26420000
opls_239-122    N    0.46134006    0.52989003    0.50000000    0.01460000
opls_750-123    N    0.40810997    0.60277992    0.50000000    -0.26420000
opls_239-124    N    0.47010992    0.93144997    0.50000000    0.01460000
opls_750-125    N    0.39721995    0.80533006    0.50000000    -0.26420000
opls_239-126    N    0.93144999    0.46134000    0.50000000    0.01460000
opls_750-127    N    0.80532992    0.40810998    0.50000000    -0.26420000
opls_239-128    N    0.53865994    0.47010997    0.50000000    0.01460000
opls_750-129    N    0.59188993    0.39721989    0.50000000    -0.26420000
opls_239-130    N    0.52989008    0.06855003    0.50000000    0.01460000
opls_750-131    N    0.60278005    0.19466994    0.50000000    -0.26420000
opls_525-132    H    0.02055997    0.47448989    0.50000000    0.04650000
opls_524-133    H    0.06970991    0.50283997    0.50000000    0.02740000
opls_524-134    H    0.06319001    0.57227995    0.50000000    0.02740000
opls_525-135    H    0.01431004    0.54519993    0.50000000    0.04650000
opls_525-136    H    0.10287003    0.52081992    0.50000000    0.04650000
opls_526-137    H    0.15179995    0.54855004    0.50000000    0.04650000
opls_526-138    H    0.14542010    0.61914006    0.50000000    0.04650000
opls_525-139    H    0.09631001    0.59140001    0.50000000    0.04650000
opls_144-140    H    0.18881998    0.62388997    0.50000000    0.02740000
opls_146-141    H    0.22692005    0.57271005    0.50000000    0.04650000
opls_146-142    H    0.27609006    0.59908005    0.50000000    0.04650000
opls_146-143    H    0.27248989    0.67123988    0.50000000    0.04650000
opls_146-144    H    0.22341000    0.64490995    0.50000000    0.04650000
opls_146-145    H    0.31061996    0.61745994    0.50000000    0.04650000
opls_525-146    H    0.52551009    0.54607004    0.50000000    0.04650000
opls_524-147    H    0.49716008    0.56687002    0.50000000    0.02740000
opls_524-148    H    0.42771996    0.49090994    0.50000000    0.02740000
opls_525-149    H    0.45479990    0.46910991    0.50000000    0.04650000
opls_525-150    H    0.47917997    0.58204997    0.50000000    0.04650000
opls_526-151    H    0.45144991    0.60324989    0.50000000    0.04650000
opls_526-152    H    0.38086003    0.52628004    0.50000000    0.04650000
opls_525-153    H    0.40860000    0.50490991    0.50000000    0.04650000
opls_144-154    H    0.37611006    0.56493002    0.50000000    0.02740000
opls_146-155    H    0.42728997    0.65421000    0.50000000    0.04650000
opls_146-156    H    0.40091987    0.67700989    0.50000000    0.04650000
opls_146-157    H    0.32875993    0.60124998    0.50000000    0.04650000
opls_146-158    H    0.35508990    0.57849989    0.50000000    0.04650000
opls_146-159    H    0.38254004    0.69315994    0.50000000    0.04650000
opls_525-160    H    0.45393001    0.97943987    0.50000000    0.04650000
opls_524-161    H    0.43313001    0.93029002    0.50000000    0.02740000
opls_524-162    H    0.50908993    0.93680991    0.50000000    0.02740000
opls_525-163    H    0.53088996    0.98568996    0.50000000    0.04650000
opls_525-164    H    0.41794990    0.89712992    0.50000000    0.04650000
opls_526-165    H    0.39674987    0.84819988    0.50000000    0.04650000
opls_526-166    H    0.47371987    0.85457991    0.50000000    0.04650000
opls_525-167    H    0.49508989    0.90368989    0.50000000    0.04650000
opls_144-168    H    0.43506996    0.81118001    0.50000000    0.02740000
opls_146-169    H    0.34578998    0.77307996    0.50000000    0.04650000
opls_146-170    H    0.32299007    0.72391006    0.50000000    0.04650000
opls_146-171    H    0.39874992    0.72750994    0.50000000    0.04650000
opls_146-172    H    0.42150000    0.77658996    0.50000000    0.04650000
opls_146-173    H    0.30683990    0.68937993    0.50000000    0.04650000
opls_525-174    H    0.97943993    0.52550991    0.50000000    0.04650000
opls_524-175    H    0.93029009    0.49716003    0.50000000    0.02740000
opls_524-176    H    0.93680999    0.42772005    0.50000000    0.02740000
opls_525-177    H    0.98568996    0.45480007    0.50000000    0.04650000
opls_525-178    H    0.89712987    0.47917989    0.50000000    0.04650000
opls_526-179    H    0.84820005    0.45144996    0.50000000    0.04650000
opls_526-180    H    0.85457990    0.38085994    0.50000000    0.04650000
opls_525-181    H    0.90368999    0.40859999    0.50000000    0.04650000
opls_144-182    H    0.81118002    0.37611003    0.50000000    0.02740000
opls_146-183    H    0.77307995    0.42728995    0.50000000    0.04650000
opls_146-184    H    0.72390994    0.40091995    0.50000000    0.04650000
opls_146-185    H    0.72751001    0.32875992    0.50000000    0.04650000
opls_146-186    H    0.77659000    0.35509005    0.50000000    0.04650000
opls_146-187    H    0.68938004    0.38254006    0.50000000    0.04650000
opls_525-188    H    0.47448991    0.45392996    0.50000000    0.04650000
opls_524-189    H    0.50283992    0.43312998    0.50000000    0.02740000
opls_524-190    H    0.57228004    0.50909006    0.50000000    0.02740000
opls_525-191    H    0.54520000    0.53088989    0.50000000    0.04650000
opls_525-192    H    0.52082003    0.41795003    0.50000000    0.04650000
opls_526-193    H    0.54854999    0.39674991    0.50000000    0.04650000
opls_526-194    H    0.61913997    0.47371996    0.50000000    0.04650000
opls_525-195    H    0.59139990    0.49508990    0.50000000    0.04650000
opls_144-196    H    0.62388994    0.43506998    0.50000000    0.02740000
opls_146-197    H    0.57271003    0.34579000    0.50000000    0.04650000
opls_146-198    H    0.59908003    0.32298992    0.50000000    0.04650000
opls_146-199    H    0.67124007    0.39875002    0.50000000    0.04650000
opls_146-200    H    0.64491000    0.42149992    0.50000000    0.04650000
opls_146-201    H    0.61745996    0.30684006    0.50000000    0.04650000
opls_525-202    H    0.54606989    0.02055993    0.50000000    0.04650000
opls_524-203    H    0.56686999    0.06970998    0.50000000    0.02740000
opls_524-204    H    0.49091007    0.06319009    0.50000000    0.02740000
opls_525-205    H    0.46911004    0.01431004    0.50000000    0.04650000
opls_525-206    H    0.58205010    0.10287008    0.50000000    0.04650000
opls_526-207    H    0.60325003    0.15179993    0.50000000    0.04650000
opls_526-208    H    0.52628003    0.14541990    0.50000000    0.04650000
opls_525-209    H    0.50491001    0.09630992    0.50000000    0.04650000
opls_144-210    H    0.56493004    0.18881999    0.50000000    0.02740000
opls_146-211    H    0.65421002    0.22692004    0.50000000    0.04650000
opls_146-212    H    0.67700993    0.27608994    0.50000000    0.04650000
opls_146-213    H    0.60125008    0.27249006    0.50000000    0.04650000
opls_146-214    H    0.57850000    0.22341004    0.50000000    0.04650000
opls_146-215    H    0.69316010    0.31062007    0.50000000    0.04650000
