#======================================================================
# Crystal Data Generated By AuToFF
#----------------------------------------------------------------------

data_AuToFF_phase_1

_cell_length_a                         18.4585
_cell_length_b                         18.7031
_cell_length_c                         7.1552
_cell_angle_alpha                      90.00
_cell_angle_beta                       90.00
_cell_angle_gamma                      120.00
_symmetry_space_group_name_H-M_alt     'P 1'
_symmetry_space_group_IT_number        1

loop_
_space_group_symop_operation_xyz
   'x, y, z'

loop_
   _atom_site_label
   _atom_site_type_symbol
   _atom_site_fract_x
   _atom_site_fract_y
   _atom_site_fract_z
   _atom_site_charge
opls_144-0    H    0.58742972    0.78376970    0.85025017    0.09860000
opls_144-1    H    0.95897006    0.92367028    0.16197032    0.02640000
opls_144-2    H    0.80807990    0.14550025    0.97648983    0.04380000
opls_910-3    H    0.80038999    0.75550028    0.09742006    0.26700000
opls_910-4    H    0.98171001    0.16087004    0.99251034    0.25750000
opls_146-5    H    0.82027004    0.63838984    0.10765038    0.24120000
opls_526-6    H    0.90762001    0.57637973    0.08126957    0.12520000
opls_526-7    H    0.11367016    0.81550018    0.98568034    0.24120000
opls_146-8    H    0.02578978    0.87652000    0.00723949    0.10510000
opls_146-9    H    0.09842999    0.29432019    0.96611975    0.23470000
opls_526-10    H    0.16138024    0.44411003    0.96508972    0.24120000
opls_526-11    H    0.92818010    0.42168971    0.07732977    0.24230000
opls_146-12    H    0.86692986    0.27351988    0.08542039    0.24130000
opls_526-13    H    0.32575983    0.62636010    0.01564037    0.10510000
opls_146-14    H    0.47262017    0.71315017    0.98013053    0.11780000
opls_146-15    H    0.42598976    0.91355999    0.82983984    0.10510000
opls_526-16    H    0.27849014    0.82682980    0.87190994    0.11530000
opls_910-17    H    0.56382019    0.93205992    0.82488959    0.27400000
opls_144-18    H    0.58742972    0.78376970    0.35025017    0.09860000
opls_144-19    H    0.95897006    0.92367028    0.66197032    0.02640000
opls_144-20    H    0.80807990    0.14550025    0.47649961    0.04380000
opls_910-21    H    0.80038999    0.75550028    0.59742006    0.26700000
opls_910-22    H    0.98171001    0.16087004    0.49251034    0.25750000
opls_146-23    H    0.82027004    0.63838984    0.60765038    0.24120000
opls_526-24    H    0.90762001    0.57637973    0.58126957    0.12520000
opls_526-25    H    0.11367016    0.81550018    0.48568034    0.24120000
opls_146-26    H    0.02578978    0.87652000    0.50723949    0.10510000
opls_146-27    H    0.09842999    0.29432019    0.46611975    0.23470000
opls_526-28    H    0.16138024    0.44411003    0.46508972    0.24120000
opls_526-29    H    0.92818010    0.42168971    0.57732977    0.24230000
opls_146-30    H    0.86692986    0.27351988    0.58542039    0.24130000
opls_526-31    H    0.32575983    0.62636010    0.51564037    0.10510000
opls_146-32    H    0.47262017    0.71315017    0.48013053    0.11780000
opls_146-33    H    0.42598976    0.91355999    0.32983984    0.10510000
opls_526-34    H    0.27849014    0.82682980    0.37190994    0.11550000
opls_910-35    H    0.56382019    0.93205992    0.32488959    0.27400000
opls_280-36    C    0.75319987    0.86761978    0.94982949    0.18120000
opls_700-37    C    0.84292029    0.91695005    0.04954019    -0.06690000
opls_231-38    C    0.87758019    0.00652020    0.09495053    0.18130000
opls_145-39    C    0.82301975    0.04357994    0.04074939    -0.05040000
opls_280-40    C    0.73024991    0.98719977    0.01643001    0.21830000
opls_700-41    C    0.69354015    0.89927988    0.94957933    -0.06050000
opls_142-42    C    0.60945014    0.84763011    0.89078013    0.06960000
opls_142-43    C    0.89325979    0.88367981    0.09767023    0.06180000
opls_142-44    C    0.85340968    0.12471971    0.01422043    0.05580000
opls_916-45    C    0.97701026    0.27132014    0.02016016    0.20250000
opls_916-46    C    0.91628979    0.76232979    0.06341961    0.20780000
opls_145-47    C    0.88429014    0.67742027    0.08106971    -0.20270000
opls_523-48    C    0.93440014    0.64208982    0.06596042    -0.19490000
opls_522-49    C    0.01796995    0.69107990    0.03265038    0.04070000
opls_523-50    C    0.04995975    0.77611969    0.01372009    -0.19590000
opls_145-51    C    0.99956003    0.81134024    0.02759951    -0.20280000
opls_145-52    C    0.06091020    0.32169008    0.99104008    -0.20270000
opls_523-53    C    0.09686008    0.40742998    0.99063059    -0.19480000
opls_522-54    C    0.04947975    0.44492004    0.01885063    0.03550000
opls_523-55    C    0.96604005    0.39476989    0.05195941    -0.19520000
opls_145-56    C    0.93042010    0.30908988    0.05446948    -0.20250000
opls_531-57    C    0.07089986    0.65343982    0.01552018    0.35190000
opls_531-58    C    0.08624964    0.53548973    0.01086063    0.35640000
opls_531-59    C    0.20127008    0.66697968    0.97333967    0.35250000
opls_700-60    C    0.29029999    0.71950985    0.94604064    0.00340000
opls_523-61    C    0.34658012    0.68874990    0.97364993    -0.12030000
opls_145-62    C    0.43116996    0.73878027    0.95225011    -0.17470000
opls_916-63    C    0.46091011    0.82033986    0.89806994    0.18910000
opls_145-64    C    0.40456008    0.85092015    0.87054031    -0.16780000
opls_523-65    C    0.32027965    0.80128984    0.89479959    -0.13630000
opls_280-66    C    0.75319987    0.86761978    0.44982949    0.18120000
opls_700-67    C    0.84292029    0.91695005    0.54953041    -0.06690000
opls_231-68    C    0.87758019    0.00652020    0.59495053    0.18130000
opls_145-69    C    0.82301975    0.04357994    0.54074939    -0.05040000
opls_280-70    C    0.73024991    0.98719977    0.51643001    0.21830000
opls_700-71    C    0.69354015    0.89927988    0.44957933    -0.06050000
opls_142-72    C    0.60945014    0.84763011    0.39078992    0.06970000
opls_142-73    C    0.89325979    0.88367981    0.59767023    0.06180000
opls_142-74    C    0.85340968    0.12471971    0.51422043    0.05580000
opls_916-75    C    0.97701026    0.27132014    0.52016016    0.20260000
opls_916-76    C    0.91628979    0.76232979    0.56341961    0.20790000
opls_145-77    C    0.88429014    0.67742027    0.58106971    -0.20270000
opls_523-78    C    0.93440014    0.64208982    0.56596042    -0.19480000
opls_522-79    C    0.01796995    0.69107990    0.53265038    0.04070000
opls_523-80    C    0.04995975    0.77611969    0.51372009    -0.19590000
opls_145-81    C    0.99956003    0.81134024    0.52759951    -0.20280000
opls_145-82    C    0.06091020    0.32169008    0.49104008    -0.20270000
opls_523-83    C    0.09686008    0.40742998    0.49063059    -0.19480000
opls_522-84    C    0.04947975    0.44492004    0.51885063    0.03550000
opls_523-85    C    0.96604005    0.39476989    0.55195941    -0.19520000
opls_145-86    C    0.93042010    0.30908988    0.55446948    -0.20250000
opls_531-87    C    0.07089986    0.65343982    0.51552018    0.35180000
opls_531-88    C    0.08624964    0.53548973    0.51086063    0.35640000
opls_531-89    C    0.20127008    0.66697968    0.47333967    0.35250000
opls_700-90    C    0.29029999    0.71950985    0.44604064    0.00340000
opls_523-91    C    0.34658012    0.68874990    0.47364993    -0.12030000
opls_145-92    C    0.43116996    0.73878027    0.45225011    -0.17470000
opls_916-93    C    0.46091011    0.82033986    0.39806994    0.18910000
opls_145-94    C    0.40456008    0.85092015    0.37054031    -0.16780000
opls_523-95    C    0.32027965    0.80128984    0.39480937    -0.13630000
opls_238-96    N    0.86260021    0.79646004    0.07880982    -0.29570000
opls_238-97    N    0.94182991    0.18298970    0.01596042    -0.30070000
opls_520-98    N    0.03831029    0.57067016    0.02611947    -0.43000000
opls_520-99    N    0.16777998    0.58414025    0.98500950    -0.32440000
opls_520-100    N    0.15240971    0.70116982    0.98851045    -0.39210000
opls_238-101    N    0.54749032    0.87361027    0.87300006    -0.29740000
opls_238-102    N    0.86260021    0.79646004    0.57880982    -0.29580000
opls_238-103    N    0.94182991    0.18298970    0.51596042    -0.30070000
opls_520-104    N    0.03831029    0.57067016    0.52611947    -0.43000000
opls_520-105    N    0.16777998    0.58414025    0.48500950    -0.32440000
opls_520-106    N    0.15240971    0.70116982    0.48851045    -0.39210000
opls_238-107    N    0.54749032    0.87361027    0.37300006    -0.29740000
opls_281-108    O    0.72896009    0.80224987    0.86224005    -0.43660000
opls_281-109    O    0.68539020    0.01301014    0.05717939    -0.35880000
opls_272-110    O    0.94897977    0.04825972    0.18607027    -0.38670000
opls_281-111    O    0.72896009    0.80224987    0.36224005    -0.43650000
opls_281-112    O    0.68539020    0.01301014    0.55717939    -0.35890000
opls_272-113    O    0.94897977    0.04825972    0.68607027    -0.38670000
