#======================================================================
# Crystal Data Generated By AuToFF
#----------------------------------------------------------------------

data_AuToFF_phase_1

_cell_length_a                         23.2830
_cell_length_b                         23.2830
_cell_length_c                         3.4370
_cell_angle_alpha                      90.00
_cell_angle_beta                       90.00
_cell_angle_gamma                      120.00
_symmetry_space_group_name_H-M_alt     'P 1'
_symmetry_space_group_IT_number        1

loop_
_space_group_symop_operation_xyz
   'x, y, z'

loop_
   _atom_site_label
   _atom_site_type_symbol
   _atom_site_fract_x
   _atom_site_fract_y
   _atom_site_fract_z
   _atom_site_charge
opls_641-0    N    0.04130019    0.06665999    0.80789060    -0.36870000
opls_641-1    N    0.93333986    0.97464003    0.80789060    -0.36870000
opls_641-2    N    0.02535995    0.95869998    0.80789060    -0.36870000
opls_642-3    C    0.06688996    0.02537980    0.80789060    0.40040000
opls_142-4    C    0.13898999    0.05185018    0.80789060    -0.15070000
opls_142-5    C    0.18239996    0.11670990    0.80789060    -0.08000000
opls_700-6    C    0.25521986    0.14571008    0.80789060    -0.03380000
opls_145-7    C    0.29408972    0.21496979    0.80789060    -0.07390000
opls_145-8    C    0.36334011    0.24616997    0.80789060    -0.09240000
opls_700-9    C    0.39465016    0.20832021    0.80789060    0.16580000
opls_145-10    C    0.35644013    0.13912001    0.80789060    -0.17380000
opls_727-11    C    0.28705009    0.10755978    0.80789060    0.27950000
opls_261-12    C    0.46596987    0.24061989    0.80789060    -0.06180000
opls_261-13    C    0.52585991    0.26810000    0.80789060    -0.06180000
opls_700-14    C    0.59721998    0.30114012    0.80789060    0.15270000
opls_145-15    C    0.63452978    0.37051985    0.80789060    -0.08070000
opls_642-16    C    0.97461995    0.04150980    0.80789060    0.40040000
opls_142-17    C    0.94815011    0.08713989    0.80789060    -0.15070000
opls_142-18    C    0.88328992    0.06568993    0.80789060    -0.08000000
opls_700-19    C    0.85428977    0.10950983    0.80789060    -0.03380000
opls_145-20    C    0.78503010    0.07912002    0.80789060    -0.07390000
opls_145-21    C    0.75383010    0.11717014    0.80789060    -0.09240000
opls_700-22    C    0.79167988    0.18633017    0.80789060    0.16060000
opls_145-23    C    0.86088011    0.21732006    0.80789060    -0.17380000
opls_727-24    C    0.89244017    0.17949014    0.80789060    0.27930000
opls_261-25    C    0.75937982    0.22534985    0.80789060    -0.06180000
opls_261-26    C    0.73189986    0.25776012    0.80789060    -0.06180000
opls_700-27    C    0.69885993    0.29608003    0.80789060    0.15270000
opls_145-28    C    0.62947997    0.26400997    0.80789060    -0.08080000
opls_642-29    C    0.95848984    0.93310990    0.80789060    0.40040000
opls_142-30    C    0.91285990    0.86100993    0.80789060    -0.15070000
opls_142-31    C    0.93431011    0.81760017    0.80789060    -0.08000000
opls_700-32    C    0.89048995    0.74478009    0.80789060    -0.03380000
opls_145-33    C    0.92088019    0.70591018    0.80789060    -0.07390000
opls_145-34    C    0.88282980    0.63665989    0.80789060    -0.09240000
opls_700-35    C    0.81367021    0.60535012    0.80789060    0.16050000
opls_145-36    C    0.78267976    0.64355993    0.80789060    -0.17380000
opls_727-37    C    0.82051017    0.71295007    0.80789060    0.27950000
opls_261-38    C    0.77465007    0.53402977    0.80789060    -0.06180000
opls_261-39    C    0.74223980    0.47413988    0.80789060    -0.06180000
opls_700-40    C    0.70392010    0.40277985    0.80789060    0.15270000
opls_145-41    C    0.73599025    0.36547017    0.80789060    -0.08070000
opls_719-42    F    0.78850981    0.74815993    0.80789060    -0.11780000
opls_719-43    F    0.25184006    0.04034980    0.80789060    -0.11780000
opls_719-44    F    0.95964988    0.21148977    0.80789060    -0.11780000
opls_144-45    H    0.15950021    0.01648013    0.80789060    0.05010000
opls_144-46    H    0.16404993    0.15384997    0.80789060    0.05010000
opls_146-47    H    0.26866005    0.24598994    0.80789060    0.05010000
opls_146-48    H    0.39434999    0.30262001    0.80789060    0.05010000
opls_146-49    H    0.38171011    0.10796001    0.80789060    0.05010000
opls_146-50    H    0.60843019    0.40090023    0.80789060    0.05010000
opls_144-51    H    0.98352010    0.14302010    0.80789060    0.05010000
opls_144-52    H    0.84615014    0.01020003    0.80789060    0.05010000
opls_146-53    H    0.75400990    0.02266998    0.80789060    0.05010000
opls_146-54    H    0.69737975    0.09172983    0.80789060    0.05010000
opls_146-55    H    0.89204003    0.27374977    0.80789060    0.05010000
opls_146-56    H    0.59909988    0.20753018    0.80789060    0.05010000
opls_144-57    H    0.85697969    0.84049977    0.80789060    0.05010000
opls_144-58    H    0.98979994    0.83595000    0.80789060    0.05010000
opls_146-59    H    0.97733005    0.73134008    0.80789060    0.05010000
opls_146-60    H    0.90827026    0.60565016    0.80789060    0.05010000
opls_146-61    H    0.72625030    0.61829022    0.80789060    0.05010000
opls_146-62    H    0.79247018    0.39157009    0.80789060    0.05010000
