#======================================================================
# Crystal Data Generated By AuToFF
#----------------------------------------------------------------------

data_AuToFF_phase_1

_cell_length_a                         25.3200
_cell_length_b                         42.6230
_cell_length_c                         4.5300
_cell_angle_alpha                      90.00
_cell_angle_beta                       94.95
_cell_angle_gamma                      90.00
_symmetry_space_group_name_H-M_alt     'P 1'
_symmetry_space_group_IT_number        1

loop_
_space_group_symop_operation_xyz
   'x, y, z'

loop_
   _atom_site_label
   _atom_site_type_symbol
   _atom_site_fract_x
   _atom_site_fract_y
   _atom_site_fract_z
   _atom_site_charge
opls_633-0    S    0.44004991    0.03791005    0.41954976    0.08230000
opls_633-1    S    0.94004991    0.53791005    0.41954976    0.08230000
opls_633-2    S    0.55995009    0.03791005    0.58045024    0.08230000
opls_633-3    S    0.05995009    0.53791005    0.58045024    0.08230000
opls_633-4    S    0.55995009    0.96208995    0.58045024    0.08230000
opls_633-5    S    0.05995009    0.46208995    0.58045024    0.08230000
opls_633-6    S    0.44004991    0.96208995    0.41954976    0.08240000
opls_633-7    S    0.94004991    0.46208995    0.41954976    0.08230000
opls_716-8    C    0.47346009    0.07542008    0.46367020    -0.05790000
opls_700-9    C    0.43921998    0.10380006    0.41890053    0.07920000
opls_145-10    C    0.44544999    0.13014992    0.60467085    -0.11850000
opls_145-11    C    0.41348993    0.15662999    0.55297024    -0.16450000
opls_145-12    C    0.37313995    0.15699998    0.32194944    0.19620000
opls_145-13    C    0.36441994    0.12993994    0.14636946    -0.16460000
opls_145-14    C    0.39746007    0.10383995    0.19315105    -0.12440000
opls_700-15    C    0.27883993    0.22168993    0.03412067    -0.07290000
opls_145-16    C    0.23461007    0.22404007    0.82640978    -0.25250000
opls_181-17    C    0.36199021    0.27276001    0.55570007    -0.19340000
opls_142-18    C    0.30746985    0.19130000    0.05583967    0.07280000
opls_166-19    C    0.29504010    0.24797011    0.20925971    0.23850000
opls_716-20    C    0.97346009    0.57542008    0.46367020    -0.05780000
opls_700-21    C    0.93921998    0.60380006    0.41890053    0.07920000
opls_145-22    C    0.94544999    0.63014992    0.60467085    -0.11850000
opls_145-23    C    0.91348993    0.65662999    0.55297024    -0.16450000
opls_145-24    C    0.87313995    0.65699998    0.32194944    0.19620000
opls_145-25    C    0.86441994    0.62993994    0.14636946    -0.16460000
opls_145-26    C    0.89746007    0.60383995    0.19315105    -0.12440000
opls_700-27    C    0.77883993    0.72168993    0.03412067    -0.07290000
opls_145-28    C    0.73461007    0.72404007    0.82640978    -0.25250000
opls_181-29    C    0.86199021    0.77276001    0.55570007    -0.19350000
opls_142-30    C    0.80746985    0.69130000    0.05583967    0.07280000
opls_166-31    C    0.79504010    0.74797011    0.20925971    0.23850000
opls_716-32    C    0.52653991    0.07542008    0.53632980    -0.05790000
opls_700-33    C    0.56078006    0.10380006    0.58110168    0.07920000
opls_145-34    C    0.55455004    0.13014992    0.39533137    -0.11850000
opls_145-35    C    0.58651007    0.15662999    0.44702976    -0.16450000
opls_145-36    C    0.62686005    0.15699998    0.67805056    0.19620000
opls_145-37    C    0.63558006    0.12993994    0.85363054    -0.16460000
opls_145-38    C    0.60253997    0.10383995    0.80685117    -0.12440000
opls_700-39    C    0.72116010    0.22168993    0.96588154    -0.07290000
opls_145-40    C    0.76538993    0.22404007    0.17359022    -0.25250000
opls_181-41    C    0.63801019    0.27276001    0.44429993    -0.19350000
opls_142-42    C    0.69253015    0.19130000    0.94416033    0.07280000
opls_166-43    C    0.70495990    0.24797011    0.79074029    0.23850000
opls_716-44    C    0.02653991    0.57542008    0.53632980    -0.05790000
opls_700-45    C    0.06078006    0.60380006    0.58110168    0.07920000
opls_145-46    C    0.05455004    0.63014992    0.39533137    -0.11850000
opls_145-47    C    0.08651007    0.65662999    0.44702976    -0.16450000
opls_145-48    C    0.12686005    0.65699998    0.67805056    0.19620000
opls_145-49    C    0.13558006    0.62993994    0.85363054    -0.16460000
opls_145-50    C    0.10253997    0.60383995    0.80685117    -0.12440000
opls_700-51    C    0.22116010    0.72168993    0.96588154    -0.07290000
opls_145-52    C    0.26538993    0.72404007    0.17359022    -0.25250000
opls_181-53    C    0.13801019    0.77276001    0.44429993    -0.19350000
opls_142-54    C    0.19253015    0.69130000    0.94416033    0.07280000
opls_166-55    C    0.20495990    0.74797011    0.79074029    0.23850000
opls_716-56    C    0.52653991    0.92457992    0.53632980    -0.05790000
opls_700-57    C    0.56078006    0.89619994    0.58110168    0.07920000
opls_145-58    C    0.55455004    0.86985008    0.39533137    -0.11850000
opls_145-59    C    0.58651007    0.84337001    0.44702976    -0.16450000
opls_145-60    C    0.62686005    0.84300002    0.67805056    0.19620000
opls_145-61    C    0.63558006    0.87006006    0.85363054    -0.16460000
opls_145-62    C    0.60253997    0.89616005    0.80685117    -0.12440000
opls_700-63    C    0.72116010    0.77831007    0.96588154    -0.07290000
opls_145-64    C    0.76538993    0.77595993    0.17359022    -0.25250000
opls_181-65    C    0.63801019    0.72723999    0.44429993    -0.19350000
opls_142-66    C    0.69253015    0.80870000    0.94416033    0.07280000
opls_166-67    C    0.70495990    0.75202989    0.79074029    0.23850000
opls_716-68    C    0.02653991    0.42457992    0.53632980    -0.05790000
opls_700-69    C    0.06078006    0.39619994    0.58110168    0.07920000
opls_145-70    C    0.05455004    0.36985008    0.39533137    -0.11850000
opls_145-71    C    0.08651007    0.34337001    0.44702976    -0.16450000
opls_145-72    C    0.12686005    0.34300002    0.67805056    0.19620000
opls_145-73    C    0.13558006    0.37006006    0.85363054    -0.16460000
opls_145-74    C    0.10253997    0.39616005    0.80685117    -0.12440000
opls_700-75    C    0.22116010    0.27831007    0.96588154    -0.07290000
opls_145-76    C    0.26538993    0.27595993    0.17359022    -0.25250000
opls_181-77    C    0.13801019    0.22723999    0.44429993    -0.19340000
opls_142-78    C    0.19253015    0.30870000    0.94416033    0.07280000
opls_166-79    C    0.20495990    0.25202989    0.79074029    0.23850000
opls_716-80    C    0.47346009    0.92457992    0.46367020    -0.05790000
opls_700-81    C    0.43921998    0.89619994    0.41890053    0.07920000
opls_145-82    C    0.44544999    0.86985008    0.60467085    -0.11850000
opls_145-83    C    0.41348993    0.84337001    0.55297024    -0.16450000
opls_145-84    C    0.37313995    0.84300002    0.32194944    0.19620000
opls_145-85    C    0.36441994    0.87006006    0.14636946    -0.16450000
opls_145-86    C    0.39746007    0.89616005    0.19315105    -0.12440000
opls_700-87    C    0.27883993    0.77831007    0.03412067    -0.07290000
opls_145-88    C    0.23461007    0.77595993    0.82640978    -0.25240000
opls_181-89    C    0.36199021    0.72723999    0.55570007    -0.19350000
opls_142-90    C    0.30746985    0.80870000    0.05583967    0.07280000
opls_166-91    C    0.29504010    0.75202989    0.20925971    0.23850000
opls_716-92    C    0.97346009    0.42457992    0.46367020    -0.05790000
opls_700-93    C    0.93921998    0.39619994    0.41890053    0.07920000
opls_145-94    C    0.94544999    0.36985008    0.60467085    -0.11850000
opls_145-95    C    0.91348993    0.34337001    0.55297024    -0.16450000
opls_145-96    C    0.87313995    0.34300002    0.32194944    0.19620000
opls_145-97    C    0.86441994    0.37006006    0.14636946    -0.16460000
opls_145-98    C    0.89746007    0.39616005    0.19315105    -0.12440000
opls_700-99    C    0.77883993    0.27831007    0.03412067    -0.07290000
opls_145-100    C    0.73461007    0.27595993    0.82640978    -0.25250000
opls_181-101    C    0.86199021    0.22723999    0.55570007    -0.19350000
opls_142-102    C    0.80746985    0.30870000    0.05583967    0.07280000
opls_166-103    C    0.79504010    0.25202989    0.20925971    0.23850000
opls_716-104    C    0.50000000    0.01579992    0.50000000    -0.12530000
opls_716-105    C    0.00000000    0.51579992    0.50000000    -0.12520000
opls_716-106    C    0.50000000    0.98420008    0.50000000    -0.12530000
opls_716-107    C    0.00000000    0.48420008    0.50000000    -0.12530000
opls_750-108    N    0.34255000    0.18526007    0.27501052    -0.33070000
opls_750-109    N    0.84255000    0.68526007    0.27501052    -0.33090000
opls_750-110    N    0.65745003    0.18526007    0.72499169    -0.33080000
opls_750-111    N    0.15745003    0.68526007    0.72499169    -0.33090000
opls_750-112    N    0.65745003    0.81473993    0.72499169    -0.33090000
opls_750-113    N    0.15745003    0.31473993    0.72499169    -0.33080000
opls_750-114    N    0.34255000    0.81473993    0.27501052    -0.33090000
opls_750-115    N    0.84255000    0.31473993    0.27501052    -0.33090000
opls_179-116    O    0.34058009    0.24523989    0.41122067    -0.19850000
opls_179-117    O    0.84058009    0.74523989    0.41122067    -0.19840000
opls_179-118    O    0.65941994    0.24523989    0.58878155    -0.19850000
opls_179-119    O    0.15941994    0.74523989    0.58878155    -0.19850000
opls_179-120    O    0.65941994    0.75476011    0.58878155    -0.19850000
opls_179-121    O    0.15941994    0.25476011    0.58878155    -0.19850000
opls_179-122    O    0.34058009    0.75476011    0.41122067    -0.19850000
opls_179-123    O    0.84058009    0.25476011    0.41122067    -0.19850000
opls_146-124    H    0.47513000    0.13038993    0.78930004    0.23450000
opls_146-125    H    0.42000004    0.17693992    0.69510093    0.12050000
opls_146-126    H    0.33304008    0.12868991    0.96967051    0.11720000
opls_146-127    H    0.39084000    0.08383995    0.04724912    0.11890000
opls_146-128    H    0.22347000    0.20361002    0.69405065    0.12190000
opls_185-129    H    0.33355989    0.28287990    0.70278966    0.07480000
opls_185-130    H    0.39844016    0.26624991    0.69580111    0.09080000
opls_185-131    H    0.37281012    0.29032002    0.38986949    0.07540000
opls_144-132    H    0.29813993    0.17420008    0.88321996    0.11830000
opls_146-133    H    0.97513000    0.63038993    0.78930004    0.23450000
opls_146-134    H    0.92000004    0.67693992    0.69510093    0.12050000
opls_146-135    H    0.83304008    0.62868991    0.96967051    0.11720000
opls_146-136    H    0.89084000    0.58383995    0.04724912    0.11890000
opls_146-137    H    0.72347000    0.70361002    0.69405065    0.12180000
opls_185-138    H    0.83355989    0.78287990    0.70278966    0.07480000
opls_185-139    H    0.89844016    0.76624991    0.69580111    0.09080000
opls_185-140    H    0.87281012    0.79032002    0.38986949    0.07540000
opls_144-141    H    0.79813993    0.67420008    0.88321996    0.11830000
opls_146-142    H    0.52487000    0.13038993    0.21069996    0.23450000
opls_146-143    H    0.57999999    0.17693992    0.30490129    0.11940000
opls_146-144    H    0.66695995    0.12868991    0.03033170    0.11720000
opls_146-145    H    0.60916000    0.08383995    0.95275088    0.11890000
opls_146-146    H    0.77653000    0.20361002    0.30594935    0.12190000
opls_185-147    H    0.66644011    0.28287990    0.29721034    0.07480000
opls_185-148    H    0.60155988    0.26624991    0.30420110    0.09080000
opls_185-149    H    0.62718988    0.29032002    0.61013051    0.07540000
opls_144-150    H    0.70186010    0.17420008    0.11678226    0.11830000
opls_146-151    H    0.02487000    0.63038993    0.21069996    0.23450000
opls_146-152    H    0.07999999    0.67693992    0.30490129    0.11930000
opls_146-153    H    0.16695995    0.62868991    0.03033170    0.11720000
opls_146-154    H    0.10916000    0.58383995    0.95275088    0.11890000
opls_146-155    H    0.27653000    0.70361002    0.30594935    0.12190000
opls_185-156    H    0.16644011    0.78287990    0.29721034    0.07480000
opls_185-157    H    0.10155988    0.76624991    0.30420110    0.09080000
opls_185-158    H    0.12718988    0.79032002    0.61013051    0.07540000
opls_144-159    H    0.20186010    0.67420008    0.11678226    0.11830000
opls_146-160    H    0.52487000    0.86961007    0.21069996    0.23450000
opls_146-161    H    0.57999999    0.82306008    0.30490129    0.11930000
opls_146-162    H    0.66695995    0.87131009    0.03033170    0.11720000
opls_146-163    H    0.60916000    0.91616005    0.95275088    0.11890000
opls_146-164    H    0.77653000    0.79638998    0.30594935    0.12190000
opls_185-165    H    0.66644011    0.71712010    0.29721034    0.07480000
opls_185-166    H    0.60155988    0.73375009    0.30420110    0.09080000
opls_185-167    H    0.62718988    0.70967998    0.61013051    0.07540000
opls_144-168    H    0.70186010    0.82579992    0.11678226    0.11830000
opls_146-169    H    0.02487000    0.36961007    0.21069996    0.23460000
opls_146-170    H    0.07999999    0.32306008    0.30490129    0.11930000
opls_146-171    H    0.16695995    0.37131009    0.03033170    0.11720000
opls_146-172    H    0.10916000    0.41616005    0.95275088    0.11890000
opls_146-173    H    0.27653000    0.29638998    0.30594935    0.12180000
opls_185-174    H    0.16644011    0.21712010    0.29721034    0.07480000
opls_185-175    H    0.10155988    0.23375009    0.30420110    0.09080000
opls_185-176    H    0.12718988    0.20967998    0.61013051    0.07540000
opls_144-177    H    0.20186010    0.32579992    0.11678226    0.11830000
opls_146-178    H    0.47513000    0.86961007    0.78930004    0.23460000
opls_146-179    H    0.42000004    0.82306008    0.69510093    0.12050000
opls_146-180    H    0.33304008    0.87131009    0.96967051    0.11720000
opls_146-181    H    0.39084000    0.91616005    0.04724912    0.11890000
opls_146-182    H    0.22347000    0.79638998    0.69405065    0.12180000
opls_185-183    H    0.33355989    0.71712010    0.70278966    0.07480000
opls_185-184    H    0.39844016    0.73375009    0.69580111    0.09080000
opls_185-185    H    0.37281012    0.70967998    0.38986949    0.07540000
opls_144-186    H    0.29813993    0.82579992    0.88321996    0.11830000
opls_146-187    H    0.97513000    0.36961007    0.78930004    0.23460000
opls_146-188    H    0.92000004    0.32306008    0.69510093    0.12050000
opls_146-189    H    0.83304008    0.37131009    0.96967051    0.11720000
opls_146-190    H    0.89084000    0.41616005    0.04724912    0.11890000
opls_146-191    H    0.72347000    0.29638998    0.69405065    0.12180000
opls_185-192    H    0.83355989    0.21712010    0.70278966    0.07480000
opls_185-193    H    0.89844016    0.23375009    0.69580111    0.09080000
opls_185-194    H    0.87281012    0.20967998    0.38986949    0.07540000
opls_144-195    H    0.79813993    0.32579992    0.88321996    0.11830000
