#======================================================================
# Crystal Data Generated By AuToFF
#----------------------------------------------------------------------

data_AuToFF_phase_1

_cell_length_a                         26.2125
_cell_length_b                         26.0027
_cell_length_c                         4.4228
_cell_angle_alpha                      90.00
_cell_angle_beta                       90.00
_cell_angle_gamma                      90.00
_symmetry_space_group_name_H-M_alt     'P 1'
_symmetry_space_group_IT_number        1

loop_
_space_group_symop_operation_xyz
   'x, y, z'

loop_
   _atom_site_label
   _atom_site_type_symbol
   _atom_site_fract_x
   _atom_site_fract_y
   _atom_site_fract_z
   _atom_site_charge
opls_142-0    C    0.22566981    0.76382991    0.38517003    0.06760000
opls_142-1    C    0.77433019    0.23617009    0.38517003    0.06760000
opls_142-2    C    0.22566981    0.23617009    0.38517003    0.06760000
opls_142-3    C    0.77433019    0.76382991    0.38517003    0.06760000
opls_700-4    C    0.04723014    0.05500006    0.53637062    0.02900000
opls_543-5    C    0.39266991    0.45751018    0.57998101    0.18040000
opls_700-6    C    0.95276986    0.94499994    0.53637062    0.02900000
opls_543-7    C    0.60733009    0.54248982    0.57998101    0.18040000
opls_700-8    C    0.04723014    0.94499994    0.53637062    0.02900000
opls_543-9    C    0.39266991    0.54248982    0.57998101    0.18040000
opls_700-10    C    0.95276986    0.05500006    0.53637062    0.02900000
opls_543-11    C    0.60733009    0.45751018    0.57998101    0.18040000
opls_716-12    C    0.34240000    0.47388002    0.66473049    -0.17220000
opls_716-13    C    0.65760000    0.52612998    0.66473049    -0.16850000
opls_716-14    C    0.34240000    0.52612998    0.66473049    -0.16860000
opls_716-15    C    0.65760000    0.47388002    0.66473049    -0.17220000
opls_543-16    C    0.54211006    0.60901983    0.49669892    0.17320000
opls_543-17    C    0.45788994    0.39099017    0.49669892    0.17360000
opls_543-18    C    0.54211006    0.39099017    0.49669892    0.17360000
opls_543-19    C    0.45788994    0.60901983    0.49669892    0.17320000
opls_716-20    C    0.52594983    0.66041988    0.42315954    -0.17040000
opls_716-21    C    0.47405017    0.33958012    0.42315954    -0.17000000
opls_716-22    C    0.52594983    0.33958012    0.42315954    -0.17000000
opls_716-23    C    0.47405017    0.66041988    0.42315954    -0.17040000
opls_700-24    C    0.04677005    0.10960016    0.53105951    0.03300000
opls_700-25    C    0.40701993    0.40605014    0.53822013    -0.07170000
opls_700-26    C    0.95322995    0.89039984    0.53105951    0.03300000
opls_700-27    C    0.59298007    0.59394986    0.53822013    -0.07170000
opls_700-28    C    0.04677005    0.89039984    0.53105951    0.03300000
opls_700-29    C    0.40701993    0.59394986    0.53822013    -0.07170000
opls_700-30    C    0.95322995    0.10960016    0.53105951    0.03300000
opls_700-31    C    0.59298007    0.40605014    0.53822013    -0.07170000
opls_700-32    C    0.09323987    0.14122995    0.49737949    0.06590000
opls_700-33    C    0.36658999    0.36634003    0.54290947    0.06380000
opls_700-34    C    0.90676013    0.85877005    0.49737949    0.06590000
opls_700-35    C    0.63341001    0.63365997    0.54290947    0.06380000
opls_700-36    C    0.09323987    0.85877005    0.49737949    0.06590000
opls_700-37    C    0.36658999    0.63365997    0.54290947    0.06380000
opls_700-38    C    0.90676013    0.14122995    0.49737949    0.06590000
opls_700-39    C    0.63341001    0.36634003    0.54290947    0.06380000
opls_145-40    C    0.13085017    0.12910005    0.28285023    -0.12100000
opls_145-41    C    0.09915994    0.81325016    0.66499050    -0.11900000
opls_145-42    C    0.32250987    0.37192984    0.36605996    -0.11840000
opls_145-43    C    0.37003987    0.67681010    0.73323912    -0.12370000
opls_145-44    C    0.86914983    0.87090994    0.28285023    -0.12100000
opls_145-45    C    0.90084006    0.18674984    0.66499050    -0.11900000
opls_145-46    C    0.67749013    0.62807016    0.36605996    -0.11840000
opls_145-47    C    0.62996013    0.32318990    0.73323912    -0.12330000
opls_145-48    C    0.13085017    0.87090994    0.28285023    -0.12100000
opls_145-49    C    0.09915994    0.18674984    0.66499050    -0.11900000
opls_145-50    C    0.32250987    0.62807016    0.36605996    -0.11840000
opls_145-51    C    0.37003987    0.32318990    0.73323912    -0.12330000
opls_145-52    C    0.86914983    0.12910005    0.28285023    -0.12100000
opls_145-53    C    0.90084006    0.81325016    0.66499050    -0.11900000
opls_145-54    C    0.67749013    0.37192984    0.36605996    -0.11840000
opls_145-55    C    0.62996013    0.67681010    0.73323912    -0.12370000
opls_145-56    C    0.17292017    0.16083984    0.24153930    -0.11730000
opls_145-57    C    0.14164998    0.78208994    0.62871032    -0.11840000
opls_145-58    C    0.28285017    0.33662004    0.37987022    -0.17080000
opls_145-59    C    0.33022985    0.71188992    0.75210048    -0.17140000
opls_145-60    C    0.82707983    0.83916016    0.24153930    -0.11730000
opls_145-61    C    0.85835002    0.21791006    0.62871032    -0.12000000
opls_145-62    C    0.71714983    0.66337996    0.37987022    -0.17080000
opls_145-63    C    0.66977015    0.28812008    0.75210048    -0.17130000
opls_145-64    C    0.17292017    0.83916016    0.24153930    -0.11730000
opls_145-65    C    0.14164998    0.21791006    0.62871032    -0.12000000
opls_145-66    C    0.28285017    0.66337996    0.37987022    -0.17080000
opls_145-67    C    0.33022985    0.28812008    0.75210048    -0.17140000
opls_145-68    C    0.82707983    0.16083984    0.24153930    -0.11730000
opls_145-69    C    0.85835002    0.78208994    0.62871032    -0.11830000
opls_145-70    C    0.71714983    0.33662004    0.37987022    -0.17080000
opls_145-71    C    0.66977015    0.71188992    0.75210048    -0.17130000
opls_700-72    C    0.17960019    0.20491987    0.41918016    0.05960000
opls_145-73    C    0.28616004    0.29433982    0.57580040    0.19890000
opls_700-74    C    0.82040019    0.79509013    0.41918016    0.05960000
opls_145-75    C    0.71383996    0.70566018    0.57580040    0.19890000
opls_700-76    C    0.17960019    0.79509013    0.41918016    0.05960000
opls_145-77    C    0.28616004    0.70566018    0.57580040    0.19890000
opls_700-78    C    0.82040019    0.20491987    0.41918016    0.05960000
opls_145-79    C    0.71383996    0.29433982    0.57580040    0.19890000
opls_145-80    C    0.90657015    0.02618997    0.55161888    -0.12320000
opls_145-81    C    0.09342985    0.97381003    0.55161888    -0.12320000
opls_145-82    C    0.90657015    0.97381003    0.55161888    -0.12320000
opls_145-83    C    0.09342985    0.02618997    0.55161888    -0.12320000
opls_145-84    C    0.00000000    0.13513981    0.53696075    -0.11860000
opls_700-85    C    0.00000000    0.02752983    0.53810934    -0.00160000
opls_145-86    C    0.00000000    0.86486019    0.53696075    -0.11870000
opls_700-87    C    0.00000000    0.97247017    0.53810934    -0.00160000
opls_750-88    N    0.24480992    0.73932015    0.61319978    -0.29930000
opls_750-89    N    0.75519008    0.26068985    0.61319978    -0.29940000
opls_750-90    N    0.24480992    0.26068985    0.61319978    -0.29950000
opls_750-91    N    0.75519008    0.73932015    0.61319978    -0.29940000
opls_542-92    N    0.50000000    0.57764001    0.53103012    -0.37870000
opls_542-93    N    0.50000000    0.42236998    0.53103012    -0.37870000
opls_542-94    N    0.42366009    0.50000000    0.53980962    -0.39050000
opls_542-95    N    0.57633991    0.50000000    0.53980962    -0.39060000
opls_547-96    H    0.31111989    0.44839997    0.72180971    0.11480000
opls_547-97    H    0.68888011    0.55160003    0.72180971    0.11810000
opls_547-98    H    0.31111989    0.55160003    0.72180971    0.11810000
opls_547-99    H    0.68888011    0.44839997    0.72180971    0.11480000
opls_547-100    H    0.55137015    0.69236002    0.37712083    0.11600000
opls_547-101    H    0.44862985    0.30763998    0.37712083    0.11590000
opls_547-102    H    0.55137015    0.30763998    0.37712083    0.11590000
opls_547-103    H    0.44862985    0.69236002    0.37712083    0.11590000
opls_146-104    H    0.87071016    0.04701012    0.57126029    0.10880000
opls_146-105    H    0.85345999    0.25233995    0.76584064    0.10740000
opls_146-106    H    0.92977015    0.19672995    0.83230080    0.10550000
opls_146-107    H    0.87429013    0.09555008    0.13859998    0.10570000
opls_146-108    H    0.79887000    0.15175001    0.06809939    0.10590000
opls_146-109    H    0.31985007    0.40452991    0.21211902    0.10570000
opls_146-110    H    0.24885990    0.34131994    0.24079995    0.10570000
opls_146-111    H    0.40354983    0.31862999    0.87651036    0.10550000
opls_146-112    H    0.33246009    0.25588997    0.90917971    0.10540000
opls_144-113    H    0.75675994    0.76283001    0.15825947    0.06760000
opls_146-114    H    0.12928984    0.95298988    0.57126029    0.10890000
opls_146-115    H    0.14654001    0.74766005    0.76584064    0.10740000
opls_146-116    H    0.07022985    0.80327005    0.83230080    0.10550000
opls_146-117    H    0.12570987    0.90444992    0.13859998    0.10740000
opls_146-118    H    0.20113000    0.84824999    0.06809939    0.10590000
opls_146-119    H    0.68014993    0.59547009    0.21211902    0.10570000
opls_146-120    H    0.75114010    0.65868006    0.24079995    0.10570000
opls_146-121    H    0.59645017    0.68137001    0.87651036    0.10550000
opls_146-122    H    0.66753991    0.74411003    0.90917971    0.10490000
opls_144-123    H    0.24324006    0.23716999    0.15825947    0.06760000
opls_146-124    H    0.87071016    0.95298988    0.57126029    0.10880000
opls_146-125    H    0.85345999    0.74766005    0.76584064    0.10740000
opls_146-126    H    0.92977015    0.80327005    0.83230080    0.10550000
opls_146-127    H    0.87429013    0.90444992    0.13859998    0.10740000
opls_146-128    H    0.79887000    0.84824999    0.06809939    0.10590000
opls_146-129    H    0.31985007    0.59547009    0.21211902    0.10570000
opls_146-130    H    0.24885990    0.65868006    0.24079995    0.10570000
opls_146-131    H    0.40354983    0.68137001    0.87651036    0.10550000
opls_146-132    H    0.33246009    0.74411003    0.90917971    0.10500000
opls_144-133    H    0.75675994    0.23716999    0.15825947    0.06760000
opls_146-134    H    0.12928984    0.04701012    0.57126029    0.10880000
opls_146-135    H    0.14654001    0.25233995    0.76584064    0.10740000
opls_146-136    H    0.07022985    0.19672995    0.83230080    0.10550000
opls_146-137    H    0.12570987    0.09555008    0.13859998    0.10570000
opls_146-138    H    0.20113000    0.15175001    0.06809939    0.10600000
opls_146-139    H    0.68014993    0.40452991    0.21211902    0.10570000
opls_146-140    H    0.75114010    0.34131994    0.24079995    0.10570000
opls_146-141    H    0.59645017    0.31862999    0.87651036    0.10550000
opls_146-142    H    0.66753991    0.25588997    0.90917971    0.10540000
opls_144-143    H    0.24324006    0.76283001    0.15825947    0.06760000
opls_146-144    H    0.00000000    0.17696008    0.52253098    0.10560000
opls_146-145    H    0.00000000    0.82303992    0.52253098    0.10570000
Cu2+-146    Cu    0.50000000    0.50000000    0.53334087    0.63790000
