#======================================================================
# Crystal Data Generated By AuToFF
#----------------------------------------------------------------------

data_AuToFF_phase_1

_cell_length_a                         37.1643
_cell_length_b                         37.1643
_cell_length_c                         3.7794
_cell_angle_alpha                      90.00
_cell_angle_beta                       90.00
_cell_angle_gamma                      120.00
_symmetry_space_group_name_H-M_alt     'P 1'
_symmetry_space_group_IT_number        1

loop_
_space_group_symop_operation_xyz
   'x, y, z'

loop_
   _atom_site_label
   _atom_site_type_symbol
   _atom_site_fract_x
   _atom_site_fract_y
   _atom_site_fract_z
   _atom_site_charge
opls_700-0    C    0.28958985    0.64174996    0.53805101    0.07380000
opls_700-1    C    0.35825000    0.64784002    0.53805101    0.07380000
opls_700-2    C    0.35215989    0.71041002    0.53805101    0.07380000
opls_700-3    C    0.71041015    0.35825004    0.53805101    0.07380000
opls_700-4    C    0.64175000    0.35215998    0.53805101    0.07380000
opls_700-5    C    0.64784011    0.28958998    0.53805101    0.07390000
opls_145-6    C    0.31471012    0.62338004    0.53793988    -0.14240000
opls_145-7    C    0.37661990    0.69132984    0.53793988    -0.14240000
opls_145-8    C    0.30866982    0.68528981    0.53793988    -0.14240000
opls_145-9    C    0.68528988    0.37661996    0.53793988    -0.14240000
opls_145-10    C    0.62337995    0.30866985    0.53793988    -0.14240000
opls_145-11    C    0.69133002    0.31470988    0.53793988    -0.14240000
opls_700-12    C    0.24388004    0.61573989    0.54059904    0.06620000
opls_700-13    C    0.38425993    0.62813999    0.54059904    0.06610000
opls_700-14    C    0.37185987    0.75611981    0.54059904    0.06610000
opls_700-15    C    0.75611996    0.38426011    0.54059904    0.06610000
opls_700-16    C    0.61574007    0.37186001    0.54059904    0.06620000
opls_700-17    C    0.62813998    0.24387988    0.54059904    0.06610000
opls_145-18    C    0.37015001    0.58896985    0.38365878    -0.12070000
opls_145-19    C    0.41103008    0.78118006    0.38365878    -0.12070000
opls_145-20    C    0.21881991    0.62985009    0.38365878    -0.12070000
opls_145-21    C    0.62984983    0.41102984    0.38365878    -0.12070000
opls_145-22    C    0.58896992    0.21881994    0.38365878    -0.12070000
opls_145-23    C    0.78118009    0.37014991    0.38365878    -0.12070000
opls_145-24    C    0.39437993    0.57006987    0.38782082    -0.17990000
opls_145-25    C    0.42993017    0.82431010    0.38782082    -0.17990000
opls_145-26    C    0.17568990    0.60562003    0.38782082    -0.17990000
opls_145-27    C    0.60562007    0.42993013    0.38782082    -0.17990000
opls_145-28    C    0.57006983    0.17568990    0.38782082    -0.17990000
opls_145-29    C    0.82431010    0.39437997    0.38782082    -0.17990000
opls_145-30    C    0.43378000    0.59007004    0.55120919    0.20750000
opls_145-31    C    0.40993011    0.84370999    0.55120919    0.20750000
opls_145-32    C    0.15628989    0.56621997    0.55120919    0.20750000
opls_145-33    C    0.56622000    0.40992996    0.55120919    0.20750000
opls_145-34    C    0.59006989    0.15629001    0.55120919    0.20750000
opls_145-35    C    0.84371011    0.43378003    0.55120919    0.20750000
opls_145-36    C    0.44843991    0.62965994    0.70242102    -0.17150000
opls_145-37    C    0.37033985    0.81877992    0.70242102    -0.17150000
opls_145-38    C    0.18121981    0.55155983    0.70242102    -0.17150000
opls_145-39    C    0.55156009    0.37034006    0.70242102    -0.17150000
opls_145-40    C    0.62966015    0.18122008    0.70242102    -0.17150000
opls_145-41    C    0.81878003    0.44843986    0.70242102    -0.17150000
opls_145-42    C    0.42384996    0.64812990    0.69939938    -0.11990000
opls_145-43    C    0.35187014    0.77572011    0.69939938    -0.11990000
opls_145-44    C    0.22427990    0.57614999    0.69939938    -0.11990000
opls_145-45    C    0.57615004    0.35187010    0.69939938    -0.11990000
opls_145-46    C    0.64812986    0.22427989    0.69939938    -0.11990000
opls_145-47    C    0.77572010    0.42385001    0.69939938    -0.11990000
opls_142-48    C    0.44487004    0.53330984    0.56072922    0.07810000
opls_142-49    C    0.46668996    0.91156005    0.56072922    0.07810000
opls_142-50    C    0.08844000    0.55513010    0.56072922    0.07810000
opls_142-51    C    0.55512981    0.46668985    0.56072922    0.07810000
opls_142-52    C    0.53331004    0.08843995    0.56072922    0.07810000
opls_142-53    C    0.91156000    0.44486990    0.56072922    0.07810000
opls_700-54    C    0.47234006    0.51573998    0.55513044    0.03280000
opls_700-55    C    0.48426000    0.95659997    0.55513044    0.03280000
opls_700-56    C    0.04339993    0.52766005    0.55513044    0.03290000
opls_700-57    C    0.52765994    0.48426002    0.55513044    0.03280000
opls_700-58    C    0.51574000    0.04340003    0.55513044    0.03280000
opls_700-59    C    0.95660007    0.47233995    0.55513044    0.03280000
opls_228-60    C    0.45648001    0.47206001    0.55433931    -0.02170000
opls_228-61    C    0.52793992    0.98441987    0.55433931    -0.02170000
opls_228-62    C    0.01558007    0.54352012    0.55433931    -0.02170000
opls_228-63    C    0.54351999    0.52793999    0.55433931    -0.02170000
opls_228-64    C    0.47206008    0.01558013    0.55433931    -0.02170000
opls_228-65    C    0.98441993    0.45647988    0.55433931    -0.02170000
opls_145-66    C    0.48448997    0.45716995    0.55369106    -0.11560000
opls_145-67    C    0.54282992    0.02731998    0.55369106    -0.11560000
opls_145-68    C    0.97268011    0.51551006    0.55369106    -0.11560000
opls_145-69    C    0.51551003    0.54283005    0.55369106    -0.11560000
opls_145-70    C    0.45717008    0.97268002    0.55369106    -0.11550000
opls_145-71    C    0.02731989    0.48448994    0.55369106    -0.11560000
opls_209-72    C    0.60417000    0.61345996    0.55859925    -0.38540000
opls_209-73    C    0.38654010    0.99071002    0.55859925    -0.38550000
opls_209-74    C    0.00928990    0.39583001    0.55859925    -0.38550000
opls_209-75    C    0.39583000    0.38654004    0.55859925    -0.38550000
opls_209-76    C    0.61345990    0.00928998    0.55859925    -0.38540000
opls_209-77    C    0.99071010    0.60416999    0.55859925    -0.38530000
opls_750-78    N    0.45989010    0.57300010    0.55464889    -0.27010000
opls_750-79    N    0.42699994    0.88689004    0.55464889    -0.27020000
opls_750-80    N    0.11310996    0.54010986    0.55464889    -0.27010000
opls_750-81    N    0.54010990    0.42699990    0.55464889    -0.27020000
opls_750-82    N    0.57300006    0.11310996    0.55464889    -0.27020000
opls_750-83    N    0.88688989    0.45988983    0.55464889    -0.27010000
opls_222-84    S    0.40216010    0.43830011    0.55283114    0.04690000
opls_222-85    S    0.56170001    0.96385982    0.55283114    0.04690000
opls_222-86    S    0.03614016    0.59784007    0.55283114    0.04690000
opls_222-87    S    0.59783990    0.56169989    0.55283114    0.04690000
opls_222-88    S    0.43829983    0.03613987    0.55283114    0.04690000
opls_222-89    S    0.96385984    0.40215993    0.55283114    0.04690000
opls_146-90    H    0.30006988    0.58934984    0.53831031    0.06860000
opls_146-91    H    0.41064994    0.71072010    0.53831031    0.06860000
opls_146-92    H    0.28927991    0.69993006    0.53831031    0.06860000
opls_146-93    H    0.69992996    0.41064985    0.53831031    0.06860000
opls_146-94    H    0.58935006    0.28927990    0.53831031    0.06860000
opls_146-95    H    0.71072009    0.30006994    0.53831031    0.06860000
opls_146-96    H    0.33984000    0.57324990    0.25002117    0.07640000
opls_146-97    H    0.42674979    0.76658983    0.25002117    0.07640000
opls_146-98    H    0.23341006    0.66015996    0.25002117    0.07640000
opls_146-99    H    0.66016000    0.42675010    0.25002117    0.07640000
opls_146-100    H    0.57325005    0.23340986    0.25002117    0.07640000
opls_146-101    H    0.76658994    0.33984004    0.25002117    0.07640000
opls_146-102    H    0.38310998    0.53993990    0.25644018    0.07450000
opls_146-103    H    0.46006009    0.84316999    0.25644018    0.07440000
opls_146-104    H    0.15682993    0.61689011    0.25644018    0.07440000
opls_146-105    H    0.61689002    0.46006010    0.25644018    0.07440000
opls_146-106    H    0.53993991    0.15683001    0.25644018    0.07440000
opls_146-107    H    0.84317007    0.38310989    0.25644018    0.07440000
opls_146-108    H    0.47897004    0.64532986    0.83207917    0.11310000
opls_146-109    H    0.35466995    0.83363984    0.83207917    0.11310000
opls_146-110    H    0.16636012    0.52102999    0.83207917    0.11310000
opls_146-111    H    0.52102980    0.35466983    0.83207917    0.11310000
opls_146-112    H    0.64532989    0.16635985    0.83207917    0.11310000
opls_146-113    H    0.83363988    0.47897001    0.83207917    0.11310000
opls_146-114    H    0.43537990    0.67851993    0.82677938    0.07450000
opls_146-115    H    0.32147987    0.75685990    0.82677938    0.07640000
opls_146-116    H    0.24313981    0.56461986    0.82677938    0.07440000
opls_146-117    H    0.56462010    0.32148007    0.82677938    0.07440000
opls_146-118    H    0.67852013    0.24314010    0.82677938    0.07650000
opls_146-119    H    0.75686003    0.43537983    0.82677938    0.07440000
opls_144-120    H    0.41058994    0.51094990    0.57667884    0.04760000
opls_144-121    H    0.48905012    0.89963999    0.57667884    0.04760000
opls_144-122    H    0.10035994    0.58941011    0.57667884    0.04760000
opls_144-123    H    0.58941006    0.48905010    0.57667884    0.04760000
opls_144-124    H    0.51094988    0.10036001    0.57667884    0.04760000
opls_144-125    H    0.89964006    0.41058989    0.57667884    0.04760000
opls_146-126    H    0.47349999    0.42369994    0.55406943    0.11340000
opls_146-127    H    0.57630006    0.04979986    0.55406943    0.11340000
opls_146-128    H    0.95020005    0.52649989    0.55406943    0.11350000
opls_146-129    H    0.52650001    0.57630006    0.55406943    0.11340000
opls_146-130    H    0.42369978    0.95019983    0.55406943    0.11340000
opls_146-131    H    0.04979995    0.47350011    0.55406943    0.11340000
opls_140-132    H    0.59046000    0.61944998    0.32413875    0.15070000
opls_140-133    H    0.38054997    0.97100999    0.32413875    0.15070000
opls_140-134    H    0.02899003    0.40954003    0.32413875    0.15080000
opls_140-135    H    0.40954000    0.38055002    0.32413875    0.15070000
opls_140-136    H    0.61945003    0.02899001    0.32413875    0.15080000
opls_140-137    H    0.97100997    0.59045997    0.32413875    0.15070000
opls_140-138    H    0.63751997    0.63611010    0.56031910    0.15030000
opls_140-139    H    0.36389008    0.00140996    0.56031910    0.15030000
opls_140-140    H    0.99858995    0.36247993    0.56031910    0.15030000
opls_140-141    H    0.36248003    0.36388990    0.56031910    0.15040000
opls_140-142    H    0.63610992    0.99859004    0.56031910    0.15030000
opls_140-143    H    0.00141005    0.63752007    0.56031910    0.15030000
opls_140-144    H    0.59024991    0.61874997    0.79518971    0.15230000
opls_140-145    H    0.38124997    0.97149997    0.79518971    0.15240000
opls_140-146    H    0.02850012    0.40975006    0.79518971    0.15230000
opls_140-147    H    0.40975009    0.38125003    0.79518971    0.15230000
opls_140-148    H    0.61875003    0.02850003    0.79518971    0.15230000
opls_140-149    H    0.97149988    0.59024994    0.79518971    0.15230000
