#======================================================================
# Crystal Data Generated By AuToFF
#----------------------------------------------------------------------

data_AuToFF_phase_1

_cell_length_a                         99.6894
_cell_length_b                         99.6894
_cell_length_c                         3.5104
_cell_angle_alpha                      90.00
_cell_angle_beta                       90.00
_cell_angle_gamma                      120.00
_symmetry_space_group_name_H-M_alt     'P 1'
_symmetry_space_group_IT_number        1

loop_
_space_group_symop_operation_xyz
   'x, y, z'

loop_
   _atom_site_label
   _atom_site_type_symbol
   _atom_site_fract_x
   _atom_site_fract_y
   _atom_site_fract_z
   _atom_site_charge
opls_520-0    N    0.34900004    0.67500004    0.47950946    -0.47790000
opls_750-1    N    0.20109001    0.59694997    0.50150125    -0.33850000
opls_520-2    N    0.32500001    0.67399997    0.47950946    -0.47790000
opls_750-3    N    0.40305004    0.60413999    0.50150125    -0.33850000
opls_520-4    N    0.32599995    0.65099999    0.47950946    -0.47790000
opls_750-5    N    0.39586005    0.79891004    0.50150125    -0.33850000
opls_520-6    N    0.65099996    0.32499996    0.47950946    -0.47790000
opls_750-7    N    0.79890999    0.40305003    0.50150125    -0.33850000
opls_520-8    N    0.67499999    0.32600003    0.47950946    -0.47790000
opls_750-9    N    0.59694996    0.39586001    0.50150125    -0.33850000
opls_520-10    N    0.67400005    0.34900001    0.47950946    -0.47790000
opls_750-11    N    0.60413995    0.20108996    0.50150125    -0.33850000
opls_531-12    C    0.31756004    0.65828001    0.47948952    0.35620000
opls_700-13    C    0.35082005    0.65126003    0.48015896    0.00060000
opls_523-14    C    0.34375997    0.63543999    0.39071046    -0.12260000
opls_145-15    C    0.35236997    0.62788001    0.38938867    -0.12720000
opls_700-16    C    0.36822004    0.63591003    0.48291078    0.06870000
opls_145-17    C    0.37523002    0.65174002    0.57470089    -0.12510000
opls_523-18    C    0.36667001    0.65933997    0.57065861    -0.12400000
opls_700-19    C    0.37738001    0.62782997    0.48528088    0.07000000
opls_145-20    C    0.37051999    0.61220001    0.59500057    -0.12540000
opls_145-21    C    0.37912005    0.60464003    0.59621980    -0.16700000
opls_145-22    C    0.39478007    0.61252005    0.49474989    0.19180000
opls_145-23    C    0.40170001    0.62812001    0.38134116    -0.16740000
opls_145-24    C    0.39306000    0.63566006    0.37654968    -0.12910000
opls_145-25    C    0.00922998    0.51614998    0.52070134    -0.11990000
opls_145-26    C    0.00691003    0.49075000    0.52070134    -0.11780000
opls_700-27    C    0.01616996    0.50691996    0.52061873    0.12660000
opls_145-28    C    0.16808004    0.58417000    0.50213936    -0.13010000
opls_145-29    C    0.15193998    0.57724002    0.50529000    -0.11720000
opls_700-30    C    0.14269994    0.56108998    0.50703054    0.13070000
opls_145-31    C    0.14964001    0.55188000    0.50564038    -0.11930000
opls_145-32    C    0.16577001    0.55879006    0.50248974    -0.12210000
opls_700-33    C    0.17514007    0.57498006    0.50076060    0.07040000
opls_142-34    C    0.19214006    0.58200005    0.49694052    0.07180000
opls_261-35    C    0.12610004    0.55398000    0.50987922    -0.11550000
opls_261-36    C    0.11218998    0.54801998    0.51206985    -0.11380000
opls_700-37    C    0.09560002    0.54092007    0.51443995    0.12660000
opls_145-38    C    0.08866000    0.55010005    0.54661007    -0.11780000
opls_145-39    C    0.07251997    0.54318999    0.54837056    -0.11720000
opls_700-40    C    0.06326998    0.52708003    0.51796946    0.12660000
opls_145-41    C    0.07019995    0.51788997    0.48593038    -0.11780000
opls_145-42    C    0.08633997    0.52480003    0.48416990    -0.11780000
opls_261-43    C    0.04667007    0.51997005    0.51920864    -0.11550000
opls_261-44    C    0.03275997    0.51401998    0.51998918    -0.11380000
opls_531-45    C    0.34172000    0.65927997    0.47948952    0.35620000
opls_700-46    C    0.34873998    0.69956002    0.48015896    0.00060000
opls_523-47    C    0.36456000    0.70832000    0.39071046    -0.12260000
opls_145-48    C    0.37212001    0.72449007    0.38938867    -0.12720000
opls_700-49    C    0.36408997    0.73230998    0.48291078    0.06870000
opls_145-50    C    0.34826002    0.72349000    0.57470089    -0.12510000
opls_523-51    C    0.34066001    0.70733000    0.57065861    -0.12400000
opls_700-52    C    0.37216999    0.74954997    0.48528088    0.07000000
opls_145-53    C    0.38780005    0.75832003    0.59500057    -0.12540000
opls_145-54    C    0.39536003    0.77448003    0.59621980    -0.16700000
opls_145-55    C    0.38748000    0.78226008    0.49474989    0.19180000
opls_145-56    C    0.37188000    0.77358003    0.38134116    -0.16740000
opls_145-57    C    0.36433999    0.75739999    0.37654968    -0.12910000
opls_145-58    C    0.48385000    0.49308004    0.52070134    -0.11990000
opls_145-59    C    0.50925006    0.51616006    0.52070134    -0.11780000
opls_700-60    C    0.49308004    0.50925000    0.52061873    0.12660000
opls_145-61    C    0.41582994    0.58390996    0.50213936    -0.13010000
opls_145-62    C    0.42275998    0.57469999    0.50529000    -0.11720000
opls_700-63    C    0.43891004    0.58161005    0.50703054    0.13070000
opls_145-64    C    0.44812002    0.59775997    0.50564038    -0.11930000
opls_145-65    C    0.44120997    0.60698002    0.50248974    -0.12210000
opls_700-66    C    0.42502000    0.60016008    0.50076060    0.07040000
opls_142-67    C    0.41799995    0.61013997    0.49694052    0.07180000
opls_261-68    C    0.44602003    0.57211999    0.50987922    -0.11550000
opls_261-69    C    0.45198000    0.56417001    0.51206985    -0.11380000
opls_700-70    C    0.45908002    0.55468008    0.51443995    0.12660000
opls_145-71    C    0.44990002    0.53856004    0.54661007    -0.11780000
opls_145-72    C    0.45681001    0.52933002    0.54837056    -0.11720000
opls_700-73    C    0.47292001    0.53619004    0.51796946    0.12660000
opls_145-74    C    0.48210998    0.55230997    0.48593038    -0.11780000
opls_145-75    C    0.47519999    0.56153998    0.48416990    -0.11780000
opls_261-76    C    0.48003000    0.52669999    0.51920864    -0.11550000
opls_261-77    C    0.48597998    0.51874005    0.51998918    -0.11380000
opls_531-78    C    0.34072006    0.68244002    0.47948952    0.35620000
opls_700-79    C    0.30044002    0.64918007    0.48015896    0.00060000
opls_523-80    C    0.29168002    0.65624001    0.39071046    -0.12260000
opls_145-81    C    0.27550998    0.64763003    0.38938867    -0.12720000
opls_700-82    C    0.26768999    0.63178000    0.48291078    0.06870000
opls_145-83    C    0.27650996    0.62476998    0.57470089    -0.12510000
opls_523-84    C    0.29266999    0.63333003    0.57065861    -0.12400000
opls_700-85    C    0.25045000    0.62262006    0.48528088    0.07000000
opls_145-86    C    0.24167996    0.62947996    0.59500057    -0.12540000
opls_145-87    C    0.22552007    0.62088006    0.59621980    -0.16700000
opls_145-88    C    0.21773999    0.60521999    0.49474989    0.19180000
opls_145-89    C    0.22641998    0.59829997    0.38134116    -0.16740000
opls_145-90    C    0.24260007    0.60694006    0.37654968    -0.12910000
opls_145-91    C    0.50692002    0.99076998    0.52070134    -0.11990000
opls_145-92    C    0.48384007    0.99309006    0.52070134    -0.11780000
opls_700-93    C    0.49075000    0.98383004    0.52061873    0.12660000
opls_145-94    C    0.41609002    0.83192004    0.50213936    -0.13010000
opls_145-95    C    0.42530004    0.84806000    0.50529000    -0.11720000
opls_700-96    C    0.41839002    0.85729997    0.50703054    0.13070000
opls_145-97    C    0.40224006    0.85036003    0.50564038    -0.11930000
opls_145-98    C    0.39301998    0.83423003    0.50248974    -0.12210000
opls_700-99    C    0.39983998    0.82485998    0.50076060    0.07040000
opls_142-100    C    0.38985999    0.80785998    0.49694052    0.07180000
opls_261-101    C    0.42788003    0.87390001    0.50987922    -0.11550000
opls_261-102    C    0.43583002    0.88781001    0.51206985    -0.11380000
opls_700-103    C    0.44532007    0.90440009    0.51443995    0.12660000
opls_145-104    C    0.46144004    0.91134003    0.54661007    -0.11780000
opls_145-105    C    0.47067002    0.92747999    0.54837056    -0.11720000
opls_700-106    C    0.46380997    0.93673004    0.51796946    0.12660000
opls_145-107    C    0.44769008    0.92980006    0.48593038    -0.11780000
opls_145-108    C    0.43846004    0.91365999    0.48416990    -0.11780000
opls_261-109    C    0.47330009    0.95333008    0.51920864    -0.11550000
opls_261-110    C    0.48126001    0.96724008    0.51998918    -0.11380000
opls_531-111    C    0.68243996    0.34171999    0.47948952    0.35620000
opls_700-112    C    0.64917995    0.34873997    0.48015896    0.00060000
opls_523-113    C    0.65624003    0.36456001    0.39071046    -0.12260000
opls_145-114    C    0.64763003    0.37211999    0.38938867    -0.12720000
opls_700-115    C    0.63177996    0.36408997    0.48291078    0.06870000
opls_145-116    C    0.62476998    0.34825998    0.57470089    -0.12510000
opls_523-117    C    0.63332999    0.34066003    0.57065861    -0.12400000
opls_700-118    C    0.62261999    0.37217003    0.48528088    0.07000000
opls_145-119    C    0.62948001    0.38779999    0.59500057    -0.12540000
opls_145-120    C    0.62087995    0.39535997    0.59621980    -0.16700000
opls_145-121    C    0.60521999    0.38748007    0.49474989    0.19180000
opls_145-122    C    0.59829999    0.37187999    0.38134116    -0.16740000
opls_145-123    C    0.60694006    0.36434005    0.37654968    -0.12910000
opls_145-124    C    0.99077002    0.48385002    0.52070134    -0.11990000
opls_145-125    C    0.99308997    0.50925000    0.52070134    -0.11780000
opls_700-126    C    0.98383004    0.49308004    0.52061873    0.12660000
opls_145-127    C    0.83191996    0.41583000    0.50213936    -0.13010000
opls_145-128    C    0.84806002    0.42275998    0.50529000    -0.11720000
opls_700-129    C    0.85730006    0.43891002    0.50703054    0.13070000
opls_145-130    C    0.85035999    0.44812000    0.50564038    -0.11930000
opls_145-131    C    0.83423004    0.44121005    0.50248974    -0.12210000
opls_700-132    C    0.82485999    0.42502005    0.50076060    0.07040000
opls_142-133    C    0.80785999    0.41800007    0.49694052    0.07180000
opls_261-134    C    0.87389996    0.44602000    0.50987922    -0.11550000
opls_261-135    C    0.88781002    0.45198002    0.51206985    -0.11380000
opls_700-136    C    0.90440004    0.45908004    0.51443995    0.12660000
opls_145-137    C    0.91134006    0.44990007    0.54661007    -0.11780000
opls_145-138    C    0.92748003    0.45681001    0.54837056    -0.11720000
opls_700-139    C    0.93673002    0.47291997    0.51796946    0.12660000
opls_145-140    C    0.92980005    0.48211003    0.48593038    -0.11780000
opls_145-141    C    0.91366003    0.47519997    0.48416990    -0.11780000
opls_261-142    C    0.95332999    0.48003007    0.51920864    -0.11550000
opls_261-143    C    0.96724003    0.48598002    0.51998918    -0.11380000
opls_531-144    C    0.65828000    0.34072003    0.47948952    0.35620000
opls_700-145    C    0.65126002    0.30043998    0.48015896    0.00060000
opls_523-146    C    0.63544000    0.29168000    0.39071046    -0.12260000
opls_145-147    C    0.62788005    0.27551004    0.38938867    -0.12720000
opls_700-148    C    0.63591003    0.26769002    0.48291078    0.06870000
opls_145-149    C    0.65173998    0.27651000    0.57470089    -0.12510000
opls_523-150    C    0.65933999    0.29267000    0.57065861    -0.12400000
opls_700-151    C    0.62783001    0.25045003    0.48528088    0.07000000
opls_145-152    C    0.61219995    0.24167997    0.59500057    -0.12540000
opls_145-153    C    0.60463997    0.22551997    0.59621980    -0.16700000
opls_145-154    C    0.61252005    0.21774003    0.49474989    0.19180000
opls_145-155    C    0.62812000    0.22641997    0.38134116    -0.16740000
opls_145-156    C    0.63566001    0.24260001    0.37654968    -0.12910000
opls_145-157    C    0.51615000    0.50691996    0.52070134    -0.11990000
opls_145-158    C    0.49075000    0.48384006    0.52070134    -0.11780000
opls_700-159    C    0.50691996    0.49075000    0.52061873    0.12660000
opls_145-160    C    0.58417006    0.41609004    0.50213936    -0.13000000
opls_145-161    C    0.57724002    0.42530001    0.50529000    -0.11720000
opls_700-162    C    0.56109002    0.41839007    0.50703054    0.13070000
opls_145-163    C    0.55187998    0.40224003    0.50564038    -0.11930000
opls_145-164    C    0.55879003    0.39301998    0.50248974    -0.12210000
opls_700-165    C    0.57498006    0.39984004    0.50076060    0.07040000
opls_142-166    C    0.58200005    0.38986003    0.49694052    0.07180000
opls_261-167    C    0.55397997    0.42788001    0.50987922    -0.11550000
opls_261-168    C    0.54802000    0.43582999    0.51206985    -0.11380000
opls_700-169    C    0.54092004    0.44532004    0.51443995    0.12660000
opls_145-170    C    0.55009998    0.46143996    0.54661007    -0.11780000
opls_145-171    C    0.54318999    0.47066998    0.54837056    -0.11720000
opls_700-172    C    0.52708005    0.46381007    0.51796946    0.12660000
opls_145-173    C    0.51789002    0.44769003    0.48593038    -0.11780000
opls_145-174    C    0.52480001    0.43846002    0.48416990    -0.11780000
opls_261-175    C    0.51997000    0.47330001    0.51920864    -0.11550000
opls_261-176    C    0.51402008    0.48126007    0.51998918    -0.11380000
opls_531-177    C    0.65927994    0.31755998    0.47948952    0.35620000
opls_700-178    C    0.69956003    0.35082005    0.48015896    0.00060000
opls_523-179    C    0.70831998    0.34375999    0.39071046    -0.12260000
opls_145-180    C    0.72449002    0.35236997    0.38938867    -0.12720000
opls_700-181    C    0.73231001    0.36822000    0.48291078    0.06870000
opls_145-182    C    0.72349004    0.37523002    0.57470089    -0.12510000
opls_523-183    C    0.70733001    0.36666997    0.57065861    -0.12400000
opls_700-184    C    0.74955006    0.37738006    0.48528088    0.07000000
opls_145-185    C    0.75832004    0.37052004    0.59500057    -0.12540000
opls_145-186    C    0.77447999    0.37912005    0.59621980    -0.16700000
opls_145-187    C    0.78226001    0.39478001    0.49474989    0.19180000
opls_145-188    C    0.77358002    0.40170003    0.38134116    -0.16740000
opls_145-189    C    0.75739999    0.39306006    0.37654968    -0.12910000
opls_145-190    C    0.49307998    0.00923002    0.52070134    -0.11990000
opls_145-191    C    0.51615993    0.00690994    0.52070134    -0.11780000
opls_700-192    C    0.50925000    0.01616996    0.52061873    0.12660000
opls_145-193    C    0.58390998    0.16807996    0.50213936    -0.13010000
opls_145-194    C    0.57469996    0.15194000    0.50529000    -0.11720000
opls_700-195    C    0.58160998    0.14270003    0.50703054    0.13070000
opls_145-196    C    0.59775994    0.14963997    0.50564038    -0.11930000
opls_145-197    C    0.60698002    0.16576997    0.50248974    -0.12210000
opls_700-198    C    0.60016002    0.17514002    0.50076060    0.07040000
opls_142-199    C    0.61014001    0.19214002    0.49694052    0.07180000
opls_261-200    C    0.57211997    0.12609999    0.50987922    -0.11550000
opls_261-201    C    0.56416998    0.11218999    0.51206985    -0.11380000
opls_700-202    C    0.55467998    0.09560003    0.51443995    0.12660000
opls_145-203    C    0.53855996    0.08865997    0.54661007    -0.11780000
opls_145-204    C    0.52932998    0.07252001    0.54837056    -0.11720000
opls_700-205    C    0.53619003    0.06326996    0.51796946    0.12660000
opls_145-206    C    0.55230998    0.07020006    0.48593038    -0.11780000
opls_145-207    C    0.56153996    0.08634001    0.48416990    -0.11780000
opls_261-208    C    0.52669997    0.04667004    0.51920864    -0.11550000
opls_261-209    C    0.51874005    0.03276003    0.51998918    -0.11380000
opls_526-210    H    0.33160999    0.62892004    0.31536007    0.11630000
opls_146-211    H    0.34664003    0.61580000    0.30822129    0.12270000
opls_146-212    H    0.38730003    0.65824005    0.65689950    0.11760000
opls_526-213    H    0.37241997    0.67150997    0.64512876    0.11590000
opls_146-214    H    0.35857006    0.60584002    0.68744018    0.12060000
opls_146-215    H    0.37362003    0.59262002    0.68297060    0.11630000
opls_146-216    H    0.41358999    0.63447003    0.28636053    0.12010000
opls_146-217    H    0.39862000    0.64754004    0.27862922    0.11800000
opls_146-218    H    0.01628998    0.52867002    0.52059879    0.11930000
opls_146-219    H    0.01216001    0.48351006    0.52059025    0.11670000
opls_146-220    H    0.17500001    0.59669005    0.50062101    0.11660000
opls_146-221    H    0.14667997    0.58447996    0.50625000    0.11470000
opls_146-222    H    0.14258003    0.53937004    0.50689095    0.11780000
opls_146-223    H    0.17094001    0.55148004    0.50131894    0.11630000
opls_144-224    H    0.19696004    0.57439003    0.49886053    0.10100000
opls_146-225    H    0.09572006    0.56257006    0.57045921    0.11780000
opls_146-226    H    0.06726997    0.55038997    0.57356142    0.11660000
opls_146-227    H    0.06313998    0.50541997    0.46189893    0.11780000
opls_146-228    H    0.09159007    0.51760005    0.45879957    0.11660000
opls_526-229    H    0.37107998    0.70268997    0.31536007    0.11630000
opls_146-230    H    0.38420002    0.73083998    0.30822129    0.12270000
opls_146-231    H    0.34175999    0.72906002    0.65689950    0.11760000
opls_526-232    H    0.32848999    0.70091002    0.64512876    0.11590000
opls_146-233    H    0.39416001    0.75273008    0.68744018    0.12060000
opls_146-234    H    0.40738001    0.78099997    0.68297060    0.11630000
opls_146-235    H    0.36552999    0.77912005    0.28636053    0.12010000
opls_146-236    H    0.35246000    0.75107997    0.27862922    0.11800000
opls_146-237    H    0.47133000    0.48762005    0.52059879    0.11930000
opls_146-238    H    0.51649002    0.52864999    0.52059025    0.11660000
opls_146-239    H    0.40330999    0.57831005    0.50062101    0.11660000
opls_146-240    H    0.41552000    0.56219998    0.50625000    0.11470000
opls_146-241    H    0.46063003    0.60320999    0.50689095    0.11780000
opls_146-242    H    0.44851998    0.61945999    0.50131894    0.11630000
opls_144-243    H    0.42561000    0.62257002    0.49886053    0.10100000
opls_146-244    H    0.43742996    0.53314997    0.57045921    0.11780000
opls_146-245    H    0.44961000    0.51688005    0.57356142    0.11660000
opls_146-246    H    0.49458004    0.55772003    0.46189893    0.11780000
opls_146-247    H    0.48240006    0.57399007    0.45879957    0.11660000
opls_526-248    H    0.29731003    0.66838998    0.31536007    0.11630000
opls_146-249    H    0.26916005    0.65336002    0.30822129    0.12270000
opls_146-250    H    0.27094004    0.61270005    0.65689950    0.12060000
opls_526-251    H    0.29909005    0.62758001    0.64512876    0.11590000
opls_146-252    H    0.24726999    0.64143001    0.68744018    0.12060000
opls_146-253    H    0.21900005    0.62638001    0.68297060    0.11630000
opls_146-254    H    0.22087998    0.58641003    0.28636053    0.12060000
opls_146-255    H    0.24892000    0.60138000    0.27862922    0.11800000
opls_146-256    H    0.51237997    0.98371004    0.52059879    0.11930000
opls_146-257    H    0.47135003    0.98784007    0.52059025    0.11660000
opls_146-258    H    0.42169005    0.82500001    0.50062101    0.11660000
opls_146-259    H    0.43780003    0.85332006    0.50625000    0.11470000
opls_146-260    H    0.39678994    0.85741997    0.50689095    0.11780000
opls_146-261    H    0.38054007    0.82906008    0.50131894    0.11630000
opls_144-262    H    0.37743001    0.80304007    0.49886053    0.10100000
opls_146-263    H    0.46685003    0.90428009    0.57045921    0.11780000
opls_146-264    H    0.48312003    0.93272998    0.57356142    0.11660000
opls_146-265    H    0.44227998    0.93686000    0.46189893    0.11780000
opls_146-266    H    0.42601003    0.90841000    0.45879957    0.11660000
opls_526-267    H    0.66839001    0.37107996    0.31536007    0.11630000
opls_146-268    H    0.65335997    0.38420000    0.30822129    0.12270000
opls_146-269    H    0.61270003    0.34176007    0.65689950    0.12060000
opls_526-270    H    0.62758003    0.32849003    0.64512876    0.11590000
opls_146-271    H    0.64142994    0.39415998    0.68744018    0.12060000
opls_146-272    H    0.62637997    0.40737998    0.68297060    0.11630000
opls_146-273    H    0.58641001    0.36552997    0.28636053    0.12010000
opls_146-274    H    0.60138000    0.35245996    0.27862922    0.11800000
opls_146-275    H    0.98371002    0.47132998    0.52059879    0.11930000
opls_146-276    H    0.98784005    0.51649006    0.52059025    0.11660000
opls_146-277    H    0.82500004    0.40331007    0.50062101    0.11660000
opls_146-278    H    0.85332003    0.41552004    0.50625000    0.11470000
opls_146-279    H    0.85741997    0.46062996    0.50689095    0.11780000
opls_146-280    H    0.82906004    0.44852007    0.50131894    0.11630000
opls_144-281    H    0.80303996    0.42560997    0.49886053    0.10100000
opls_146-282    H    0.90428000    0.43743006    0.57045921    0.11780000
opls_146-283    H    0.93273003    0.44961003    0.57356142    0.11660000
opls_146-284    H    0.93686002    0.49458003    0.46189893    0.11780000
opls_146-285    H    0.90840999    0.48240006    0.45879957    0.11660000
opls_526-286    H    0.62892002    0.29731003    0.31536007    0.11630000
opls_146-287    H    0.61579998    0.26916002    0.30822129    0.12270000
opls_146-288    H    0.65824001    0.27093998    0.65689950    0.11760000
opls_526-289    H    0.67151001    0.29908998    0.64512876    0.11590000
opls_146-290    H    0.60584005    0.24727004    0.68744018    0.12060000
opls_146-291    H    0.59261999    0.21900003    0.68297060    0.11630000
opls_146-292    H    0.63447007    0.22088006    0.28636053    0.12010000
opls_146-293    H    0.64754000    0.24892003    0.27862922    0.11800000
opls_146-294    H    0.52867006    0.51238007    0.52059879    0.11930000
opls_146-295    H    0.48350998    0.47135001    0.52059025    0.11660000
opls_146-296    H    0.59669007    0.42169006    0.50062101    0.11660000
opls_146-297    H    0.58448000    0.43780002    0.50625000    0.11470000
opls_146-298    H    0.53936997    0.39679001    0.50689095    0.11780000
opls_146-299    H    0.55148002    0.38054001    0.50131894    0.11630000
opls_144-300    H    0.57439000    0.37742998    0.49886053    0.10100000
opls_146-301    H    0.56257004    0.46685003    0.57045921    0.11780000
opls_146-302    H    0.55039006    0.48312006    0.57356142    0.11660000
opls_146-303    H    0.50541996    0.44227997    0.46189893    0.11780000
opls_146-304    H    0.51760000    0.42601005    0.45879957    0.11660000
opls_526-305    H    0.70268997    0.33161002    0.31536007    0.11630000
opls_146-306    H    0.73083995    0.34663998    0.30822129    0.12270000
opls_146-307    H    0.72906002    0.38730007    0.65689950    0.11760000
opls_526-308    H    0.70090995    0.37241999    0.64512876    0.11590000
opls_146-309    H    0.75273001    0.35856999    0.68744018    0.12060000
opls_146-310    H    0.78099995    0.37361999    0.68297060    0.11630000
opls_146-311    H    0.77912002    0.41358997    0.28636053    0.12060000
opls_146-312    H    0.75108000    0.39862000    0.27862922    0.11800000
opls_146-313    H    0.48762003    0.01628996    0.52059879    0.11930000
opls_146-314    H    0.52865003    0.01216005    0.52059025    0.11660000
opls_146-315    H    0.57830995    0.17499999    0.50062101    0.11660000
opls_146-316    H    0.56220003    0.14668006    0.50625000    0.11470000
opls_146-317    H    0.60321006    0.14258003    0.50689095    0.11780000
opls_146-318    H    0.61945999    0.17094003    0.50131894    0.11630000
opls_144-319    H    0.62257005    0.19696005    0.49886053    0.10100000
opls_146-320    H    0.53315003    0.09572003    0.57045921    0.11780000
opls_146-321    H    0.51687997    0.06727002    0.57356142    0.11660000
opls_146-322    H    0.55772002    0.06314000    0.46189893    0.11780000
opls_146-323    H    0.57398997    0.09159000    0.45879957    0.11660000
