#======================================================================
# Crystal Data Generated By AuToFF
#----------------------------------------------------------------------

data_AuToFF_phase_1

_cell_length_a                         37.4900
_cell_length_b                         37.4900
_cell_length_c                         6.5100
_cell_angle_alpha                      90.00
_cell_angle_beta                       90.00
_cell_angle_gamma                      120.00
_symmetry_space_group_name_H-M_alt     'P 1'
_symmetry_space_group_IT_number        1

loop_
_space_group_symop_operation_xyz
   'x, y, z'

loop_
   _atom_site_label
   _atom_site_type_symbol
   _atom_site_fract_x
   _atom_site_fract_y
   _atom_site_fract_z
   _atom_site_charge
opls_145-0    C    0.16510018    0.80540014    0.51039017    -0.17080000
opls_700-1    C    0.19239996    0.81546997    0.34378955    0.00430000
opls_729-2    C    0.19375985    0.84341995    0.19452074    0.07390000
opls_142-3    C    0.21905009    0.79680010    0.32680952    0.07050000
opls_145-4    C    0.23149993    0.71927993    0.60737020    -0.16610000
opls_145-5    C    0.24287013    0.75216010    0.47125960    0.19740000
opls_145-6    C    0.27785008    0.76481992    0.34609063    -0.16840000
opls_145-7    C    0.30014989    0.74412001    0.35441014    -0.12470000
opls_700-8    C    0.28815987    0.71056993    0.48794009    0.06360000
opls_145-9    C    0.25370009    0.69846020    0.61509985    -0.12470000
opls_145-10    C    0.29025013    0.64484008    0.49339939    -0.17080000
opls_700-11    C    0.31134005    0.68809007    0.49305991    0.06340000
opls_145-12    C    0.16831988    0.86062003    0.21386022    -0.16920000
opls_700-13    C    0.14097006    0.85049014    0.38023041    0.00390000
opls_729-14    C    0.13960004    0.82254016    0.52947926    0.07390000
opls_142-15    C    0.11411022    0.86891022    0.39615975    0.06970000
opls_145-16    C    0.10703008    0.95265019    0.15327035    -0.16550000
opls_145-17    C    0.09234991    0.91570008    0.26137020    0.19600000
opls_145-18    C    0.05380004    0.89858008    0.35915054    -0.16350000
opls_145-19    C    0.03113014    0.91887004    0.35284025    -0.11750000
opls_700-20    C    0.04626002    0.95668009    0.24911982    0.06710000
opls_145-21    C    0.08449013    0.97309015    0.14821045    -0.11670000
opls_145-22    C    0.04300992    0.02219003    0.24733948    -0.17290000
opls_700-23    C    0.02247987    0.97889999    0.24737020    0.07070000
opls_145-24    C    0.83230007    0.13999998    0.78690015    -0.16920000
opls_700-25    C    0.85958987    0.15012987    0.62025038    0.00400000
opls_729-26    C    0.86098008    0.17815007    0.47137942    0.07390000
opls_142-27    C    0.88636009    0.13162016    0.60356989    0.07050000
opls_145-28    C    0.89312002    0.04750011    0.84423041    -0.16550000
opls_145-29    C    0.90787010    0.08452014    0.73670046    0.19600000
opls_145-30    C    0.94639994    0.10160010    0.63870968    -0.16530000
opls_145-31    C    0.96898005    0.08121004    0.64429032    -0.11530000
opls_700-32    C    0.95379015    0.04337011    0.74766052    0.06870000
opls_145-33    C    0.91557005    0.02696991    0.84870968    -0.11750000
opls_145-34    C    0.95698995    0.97782999    0.74927957    -0.17290000
opls_700-35    C    0.97754001    0.02112003    0.74923041    0.07060000
opls_145-36    C    0.83552009    0.19531011    0.49098003    -0.16920000
opls_700-37    C    0.80823987    0.18519994    0.65768971    0.00450000
opls_729-38    C    0.80689985    0.15722994    0.80672965    0.07390000
opls_142-39    C    0.78158988    0.20385995    0.67501075    0.07130000
opls_145-40    C    0.76884990    0.28117006    0.39445929    -0.16610000
opls_145-41    C    0.75752998    0.24826987    0.53035023    0.19720000
opls_145-42    C    0.72250983    0.23546991    0.65533948    -0.16820000
opls_145-43    C    0.70010997    0.25607003    0.64707066    -0.12470000
opls_700-44    C    0.71204999    0.28964013    0.51374040    0.06360000
opls_145-45    C    0.74655010    0.30188014    0.38676037    -0.12390000
opls_700-46    C    0.68875988    0.31201003    0.50864055    0.06340000
opls_145-47    C    0.64550989    0.29024997    0.50831029    -0.17390000
opls_145-48    C    0.19460016    0.35970018    0.51039017    -0.17080000
opls_700-49    C    0.18453015    0.37693013    0.34378955    0.00430000
opls_729-50    C    0.15657997    0.35033999    0.19452074    0.07390000
opls_142-51    C    0.20319990    0.42224990    0.32680952    0.07050000
opls_145-52    C    0.28072010    0.51222015    0.60737020    -0.16610000
opls_145-53    C    0.24784002    0.49071019    0.47125960    0.19730000
opls_145-54    C    0.23518007    0.51303019    0.34609063    -0.16840000
opls_145-55    C    0.25588007    0.55603008    0.35441014    -0.12390000
opls_700-56    C    0.28943007    0.57758994    0.48794009    0.06360000
opls_145-57    C    0.30154001    0.55524006    0.61509985    -0.12470000
opls_145-58    C    0.35516015    0.64541020    0.49339939    -0.17080000
opls_700-59    C    0.31190990    0.62325005    0.49305991    0.06340000
opls_145-60    C    0.13938008    0.30770015    0.21386022    -0.16920000
opls_700-61    C    0.14950996    0.29048005    0.38023041    0.00400000
opls_729-62    C    0.17746013    0.31706003    0.52947926    0.07390000
opls_142-63    C    0.13109000    0.24520002    0.39615975    0.06970000
opls_145-64    C    0.04735004    0.15437999    0.15327035    -0.16550000
opls_145-65    C    0.08429998    0.17665010    0.26137020    0.19600000
opls_145-66    C    0.10142004    0.15521992    0.35915054    -0.16360000
opls_145-67    C    0.08113003    0.11226006    0.35284025    -0.11750000
opls_700-68    C    0.04332001    0.08958000    0.24911982    0.06710000
opls_145-69    C    0.02690998    0.11140012    0.14821045    -0.11670000
opls_145-70    C    0.97781012    0.02082003    0.24733948    -0.17290000
opls_700-71    C    0.02109988    0.04357986    0.24737020    0.07060000
opls_145-72    C    0.86000017    0.69230016    0.78690015    -0.16920000
opls_700-73    C    0.84987014    0.70946020    0.62025038    0.00400000
opls_729-74    C    0.82185006    0.68283001    0.47137942    0.07390000
opls_142-75    C    0.86837983    0.75473992    0.60356989    0.07050000
opls_145-76    C    0.95250005    0.84562001    0.84423041    -0.16550000
opls_145-77    C    0.91548012    0.82335021    0.73670046    0.19600000
opls_145-78    C    0.89840005    0.84480010    0.63870968    -0.16530000
opls_145-79    C    0.91879010    0.88777012    0.64429032    -0.11540000
opls_700-80    C    0.95663011    0.91042000    0.74766052    0.06870000
opls_145-81    C    0.97303016    0.88860019    0.84870968    -0.11750000
opls_145-82    C    0.02217000    0.97915995    0.74927957    -0.17290000
opls_700-83    C    0.97888011    0.95642014    0.74923041    0.07060000
opls_145-84    C    0.80469005    0.64021019    0.49098003    -0.16920000
opls_700-85    C    0.81480007    0.62303999    0.65768971    0.00450000
opls_729-86    C    0.84277000    0.64967018    0.80672965    0.07390000
opls_142-87    C    0.79614005    0.57773008    0.67501075    0.07120000
opls_145-88    C    0.71883016    0.48768006    0.39445929    -0.16610000
opls_145-89    C    0.75172999    0.50925994    0.53035023    0.19720000
opls_145-90    C    0.76452989    0.48704003    0.65533948    -0.16820000
opls_145-91    C    0.74393018    0.44404014    0.64707066    -0.12470000
opls_700-92    C    0.71036001    0.42241006    0.51374040    0.06360000
opls_145-93    C    0.69812001    0.44467000    0.38676037    -0.12390000
opls_700-94    C    0.68799007    0.37674995    0.50864055    0.06340000
opls_145-95    C    0.70975004    0.35526002    0.50831029    -0.17390000
opls_145-96    C    0.64030009    0.83489999    0.51039017    -0.17080000
opls_700-97    C    0.62307004    0.80760020    0.34378955    0.00430000
opls_729-98    C    0.64965991    0.80624007    0.19452074    0.07390000
opls_142-99    C    0.57775000    0.78095000    0.32680952    0.07050000
opls_145-100    C    0.48777997    0.76849993    0.60737020    -0.16610000
opls_145-101    C    0.50929000    0.75713002    0.47125960    0.19730000
opls_145-102    C    0.48697001    0.72215020    0.34609063    -0.16840000
opls_145-103    C    0.44397003    0.69984991    0.35441014    -0.12460000
opls_700-104    C    0.42241006    0.71184013    0.48794009    0.06360000
opls_145-105    C    0.44476005    0.74630005    0.61509985    -0.12470000
opls_145-106    C    0.35459014    0.70975003    0.49339939    -0.17080000
opls_700-107    C    0.37675021    0.68866019    0.49305991    0.06340000
opls_145-108    C    0.69230019    0.83168013    0.21386022    -0.16920000
opls_700-109    C    0.70952013    0.85903012    0.38023041    0.00390000
opls_729-110    C    0.68293999    0.86040011    0.52947926    0.07390000
opls_142-111    C    0.75479993    0.88589008    0.39615975    0.06970000
opls_145-112    C    0.84562003    0.89297012    0.15327035    -0.16550000
opls_145-113    C    0.82335001    0.90765013    0.26137020    0.19600000
opls_145-114    C    0.84477992    0.94620001    0.35915054    -0.16350000
opls_145-115    C    0.88773999    0.96887021    0.35284025    -0.11750000
opls_700-116    C    0.91042012    0.95374021    0.24911982    0.06710000
opls_145-117    C    0.88860005    0.91551004    0.14821045    -0.11670000
opls_145-118    C    0.97917995    0.95698994    0.24733948    -0.17280000
opls_700-119    C    0.95641998    0.97752014    0.24737020    0.07060000
opls_145-120    C    0.30770002    0.16769986    0.78690015    -0.16920000
opls_700-121    C    0.29053999    0.14040993    0.62025038    0.00400000
opls_729-122    C    0.31716987    0.13901992    0.47137942    0.07390000
opls_142-123    C    0.24526007    0.11363991    0.60356989    0.07050000
opls_145-124    C    0.15437992    0.10687988    0.84423041    -0.16550000
opls_145-125    C    0.17664993    0.09212996    0.73670046    0.19610000
opls_145-126    C    0.15520016    0.05360010    0.63870968    -0.16530000
opls_145-127    C    0.11223000    0.03102014    0.64429032    -0.11540000
opls_700-128    C    0.08958001    0.04620989    0.74766052    0.06870000
opls_145-129    C    0.11140007    0.08442990    0.84870968    -0.11750000
opls_145-130    C    0.02084005    0.04301006    0.74927957    -0.17290000
opls_700-131    C    0.04358003    0.02246014    0.74923041    0.07060000
opls_145-132    C    0.35979002    0.16448000    0.49098003    -0.16920000
opls_700-133    C    0.37696006    0.19176008    0.65768971    0.00450000
opls_729-134    C    0.35032988    0.19309989    0.80672965    0.07390000
opls_142-135    C    0.42227007    0.21840998    0.67501075    0.07120000
opls_145-136    C    0.51231994    0.23114987    0.39445929    -0.16610000
opls_145-137    C    0.49073988    0.24246988    0.53035023    0.19720000
opls_145-138    C    0.51296002    0.27749005    0.65533948    -0.16820000
opls_145-139    C    0.55596001    0.29989014    0.64707066    -0.12470000
opls_700-140    C    0.57759016    0.28795012    0.51374040    0.06370000
opls_145-141    C    0.55533004    0.25345016    0.38676037    -0.12390000
opls_700-142    C    0.62325004    0.31124002    0.50864055    0.06340000
opls_145-143    C    0.64474007    0.35449001    0.50831029    -0.17380000
opls_750-144    N    0.21859996    0.77211002    0.46839017    -0.33170000
opls_750-145    N    0.11690998    0.89610004    0.26331029    -0.33160000
opls_750-146    N    0.88342996    0.10425015    0.73556989    -0.33180000
opls_750-147    N    0.78187006    0.22840003    0.53307066    -0.33160000
opls_750-148    N    0.22788997    0.44648999    0.46839017    -0.33170000
opls_750-149    N    0.10390003    0.22080993    0.26331029    -0.33180000
opls_750-150    N    0.89575000    0.77917991    0.73556989    -0.33170000
opls_750-151    N    0.77160002    0.55346997    0.53307066    -0.33170000
opls_750-152    N    0.55351008    0.78139999    0.46839017    -0.33170000
opls_750-153    N    0.77918999    0.88309003    0.26331029    -0.33180000
opls_750-154    N    0.22082005    0.11656994    0.73556989    -0.33160000
opls_750-155    N    0.44652992    0.21813000    0.53307066    -0.33170000
opls_730-156    Br    0.22982001    0.85969017    0.96064055    -0.05880000
opls_730-157    Br    0.10362007    0.80639992    0.76362980    -0.05880000
opls_730-158    Br    0.89691989    0.19433005    0.23703072    -0.05880000
opls_730-159    Br    0.77093987    0.14098990    0.04094931    -0.05880000
opls_730-160    Br    0.14031016    0.37013006    0.96064055    -0.05880000
opls_730-161    Br    0.19360016    0.29722006    0.76362980    -0.05880000
opls_730-162    Br    0.80566998    0.70258990    0.23703072    -0.05880000
opls_730-163    Br    0.85900995    0.62995002    0.04094931    -0.05880000
opls_730-164    Br    0.62986998    0.77018008    0.96064055    -0.05880000
opls_730-165    Br    0.70278003    0.89638002    0.76362980    -0.05880000
opls_730-166    Br    0.29741013    0.10308005    0.23703072    -0.05880000
opls_730-167    Br    0.37004991    0.22906008    0.04094931    -0.05880000
opls_146-168    H    0.16342993    0.78405004    0.62721045    0.12020000
opls_144-169    H    0.23818993    0.80320994    0.19268049    0.10240000
opls_146-170    H    0.20504993    0.70953011    0.70672965    0.12020000
opls_146-171    H    0.28850985    0.79079991    0.24323963    0.11880000
opls_146-172    H    0.32652006    0.75402012    0.25425960    0.11830000
opls_146-173    H    0.24413998    0.67309991    0.72170046    0.11830000
opls_146-174    H    0.16996999    0.88195011    0.09692934    0.11830000
opls_144-175    H    0.09277992    0.86032003    0.52278955    0.11860000
opls_146-176    H    0.13635005    0.96592016    0.07435023    0.12030000
opls_146-177    H    0.04066008    0.86935004    0.43819048    0.12410000
opls_146-178    H    0.00187997    0.90489998    0.43127035    0.11750000
opls_146-179    H    0.09712001    0.00166013    0.06417051    0.12200000
opls_146-180    H    0.83069012    0.11866004    0.90366974    0.11830000
opls_144-181    H    0.90769013    0.14027010    0.47692934    0.12430000
opls_146-182    H    0.86380991    0.03424986    0.92327035    0.11580000
opls_146-183    H    0.95960006    0.13088003    0.56011060    0.12380000
opls_146-184    H    0.99819994    0.09516008    0.56572043    0.10700000
opls_146-185    H    0.90291002    0.99837005    0.93249002    0.12760000
opls_146-186    H    0.83721009    0.21673013    0.37447926    0.11580000
opls_144-187    H    0.76257998    0.19756007    0.80960061    0.10210000
opls_146-188    H    0.79534008    0.29101998    0.29521966    0.11830000
opls_146-189    H    0.71188992    0.20946990    0.75794009    0.12250000
opls_146-190    H    0.67370002    0.24605996    0.74707066    0.11830000
opls_146-191    H    0.75606005    0.32726014    0.28029954    0.11560000
opls_146-192    H    0.37105983    0.74311992    0.49221045    0.11770000
opls_146-193    H    0.62775997    0.37088990    0.50952074    0.12190000
opls_146-194    H    0.03696989    0.07626999    0.74929954    0.12310000
opls_146-195    H    0.07626998    0.03933005    0.24743011    0.12310000
opls_146-196    H    0.21595006    0.37937999    0.62721045    0.12030000
opls_144-197    H    0.19679005    0.43497994    0.19268049    0.10240000
opls_146-198    H    0.29047003    0.49551995    0.70672965    0.12030000
opls_146-199    H    0.20919997    0.49771016    0.24323963    0.11880000
opls_146-200    H    0.24598001    0.57249989    0.25425960    0.11830000
opls_146-201    H    0.32690008    0.57103996    0.72170046    0.11830000
opls_146-202    H    0.11805003    0.28802003    0.09692934    0.11830000
opls_144-203    H    0.13968004    0.23246012    0.52278955    0.11860000
opls_146-204    H    0.03408003    0.17042999    0.07435023    0.12020000
opls_146-205    H    0.13064991    0.17130996    0.43819048    0.12380000
opls_146-206    H    0.09510006    0.09698007    0.43127035    0.11750000
opls_146-207    H    0.99834007    0.09546008    0.06417051    0.12210000
opls_146-208    H    0.88133997    0.71203017    0.90366974    0.11830000
opls_144-209    H    0.85973004    0.76742007    0.47692934    0.12430000
opls_146-210    H    0.96575020    0.82956015    0.92327035    0.11580000
opls_146-211    H    0.86911990    0.82871992    0.56011060    0.12410000
opls_146-212    H    0.90484006    0.90303995    0.56572043    0.10700000
opls_146-213    H    0.00163006    0.90453992    0.93249002    0.12760000
opls_146-214    H    0.78326997    0.62048018    0.37447926    0.11580000
opls_144-215    H    0.80244014    0.56502006    0.80960061    0.10210000
opls_146-216    H    0.70897990    0.50431989    0.29521966    0.11830000
opls_146-217    H    0.79053015    0.50242013    0.75794009    0.12260000
opls_146-218    H    0.75394000    0.42763994    0.74707066    0.11830000
opls_146-219    H    0.67274003    0.42879988    0.28029954    0.11560000
opls_146-220    H    0.25688011    0.62794000    0.49221045    0.11770000
opls_146-221    H    0.62911007    0.25686991    0.50952074    0.12170000
opls_146-222    H    0.92373017    0.96070014    0.74929954    0.12310000
opls_146-223    H    0.96067003    0.03693995    0.24743011    0.12320000
opls_146-224    H    0.62062001    0.83656998    0.62721045    0.12020000
opls_144-225    H    0.56502002    0.76181012    0.19268049    0.10240000
opls_146-226    H    0.50448003    0.79494993    0.70672965    0.12020000
opls_146-227    H    0.50228991    0.71148993    0.24323963    0.11880000
opls_146-228    H    0.42749993    0.67347999    0.25425960    0.11830000
opls_146-229    H    0.42895994    0.75586013    0.72170046    0.11830000
opls_146-230    H    0.71198014    0.83003016    0.09692934    0.11830000
opls_144-231    H    0.76754019    0.90722016    0.52278955    0.11860000
opls_146-232    H    0.82957008    0.86365015    0.07435023    0.12030000
opls_146-233    H    0.82869001    0.95934000    0.43819048    0.12380000
opls_146-234    H    0.90301997    0.99811995    0.43127035    0.11750000
opls_146-235    H    0.90454008    0.90288010    0.06417051    0.12200000
opls_146-236    H    0.28797007    0.16931010    0.90366974    0.11830000
opls_144-237    H    0.23257998    0.09231014    0.47692934    0.12440000
opls_146-238    H    0.17043989    0.13618999    0.92327035    0.11580000
opls_146-239    H    0.17128004    0.04040005    0.56011060    0.12380000
opls_146-240    H    0.09696000    0.00179997    0.56572043    0.10700000
opls_146-241    H    0.09545992    0.09709003    0.93249002    0.12200000
opls_146-242    H    0.37952010    0.16279000    0.37447926    0.11590000
opls_144-243    H    0.43497988    0.23741988    0.80960061    0.10210000
opls_146-244    H    0.49568003    0.20466014    0.29521966    0.11830000
opls_146-245    H    0.49757993    0.28810997    0.75794009    0.12250000
opls_146-246    H    0.57235997    0.32630010    0.74707066    0.11840000
opls_146-247    H    0.57119992    0.24393998    0.28029954    0.11560000
opls_146-248    H    0.37206006    0.62894008    0.49221045    0.11770000
opls_146-249    H    0.74312981    0.37223988    0.50952074    0.12170000
opls_146-250    H    0.03930010    0.96303018    0.74929954    0.12310000
opls_146-251    H    0.96305999    0.92373001    0.24743011    0.12310000
