#======================================================================
# Crystal Data Generated By AuToFF
#----------------------------------------------------------------------

data_AuToFF_phase_1

_cell_length_a                         30.5000
_cell_length_b                         30.5000
_cell_length_c                         3.4919
_cell_angle_alpha                      90.00
_cell_angle_beta                       90.00
_cell_angle_gamma                      120.00
_symmetry_space_group_name_H-M_alt     'P 1'
_symmetry_space_group_IT_number        1

loop_
_space_group_symop_operation_xyz
   'x, y, z'

loop_
   _atom_site_label
   _atom_site_type_symbol
   _atom_site_fract_x
   _atom_site_fract_y
   _atom_site_fract_z
   _atom_site_charge
opls_281-0    O    0.29695005    0.57697027    0.00000000    -0.37280000
opls_281-1    O    0.42303007    0.71998015    0.00000000    -0.37280000
opls_281-2    O    0.28002006    0.70304996    0.00000000    -0.37280000
opls_281-3    O    0.70305014    0.42303011    0.00000000    -0.37280000
opls_281-4    O    0.57697012    0.28002023    0.00000000    -0.37280000
opls_281-5    O    0.71997994    0.29695004    0.00000000    -0.37280000
opls_238-6    N    0.38244999    0.58505015    0.00000000    -0.32620000
opls_238-7    N    0.41494983    0.79739999    0.00000000    -0.32620000
opls_238-8    N    0.20260004    0.61755024    0.00000000    -0.32620000
opls_238-9    N    0.61755020    0.41495023    0.00000000    -0.32620000
opls_238-10    N    0.58504984    0.20260001    0.00000000    -0.32620000
opls_238-11    N    0.79740015    0.38245014    0.00000000    -0.32620000
opls_280-12    C    0.31382005    0.61756993    0.00000000    0.22880000
opls_142-13    C    0.39342018    0.63145019    0.00000000    0.08450000
opls_145-14    C    0.41467988    0.56990009    0.00000000    0.14970000
opls_145-15    C    0.46145022    0.59947028    0.00000000    -0.23040000
opls_145-16    C    0.49111006    0.58277027    0.00000000    -0.22120000
opls_145-17    C    0.47494008    0.53664017    0.00000000    0.05740000
opls_145-18    C    0.42853000    0.50701017    0.00000000    -0.22120000
opls_145-19    C    0.39877993    0.52354018    0.00000000    -0.23040000
opls_145-20    C    0.36359016    0.64675016    0.00000000    -0.09730000
opls_142-21    C    0.50627000    0.52081017    0.00000000    -0.21380000
opls_280-22    C    0.38242997    0.69625010    0.00000000    0.22880000
opls_142-23    C    0.36854991    0.76196999    0.00000000    0.08450000
opls_145-24    C    0.43010027    0.84478020    0.00000000    0.14970000
opls_145-25    C    0.40053016    0.86198032    0.00000000    -0.23040000
opls_145-26    C    0.41723012    0.90834023    0.00000000    -0.22120000
opls_145-27    C    0.46335983    0.93829999    0.00000000    0.05740000
opls_145-28    C    0.49298989    0.92152010    0.00000000    -0.22120000
opls_145-29    C    0.47646004    0.87524007    0.00000000    -0.23040000
opls_145-30    C    0.35325022    0.71684012    0.00000000    -0.09730000
opls_142-31    C    0.47919012    0.98546024    0.00000000    -0.21380000
opls_280-32    C    0.30374999    0.68617997    0.00000000    0.22880000
opls_142-33    C    0.23803010    0.60658020    0.00000000    0.08450000
opls_145-34    C    0.15522004    0.58532008    0.00000000    0.14970000
opls_145-35    C    0.13802000    0.53855016    0.00000000    -0.23040000
opls_145-36    C    0.09166021    0.50889025    0.00000000    -0.22120000
opls_145-37    C    0.06170028    0.52506022    0.00000000    0.05740000
opls_145-38    C    0.07847997    0.57147011    0.00000000    -0.22120000
opls_145-39    C    0.12475990    0.60122012    0.00000000    -0.23040000
opls_145-40    C    0.28316013    0.63641010    0.00000000    -0.09730000
opls_142-41    C    0.01454007    0.49372997    0.00000000    -0.21380000
opls_280-42    C    0.68617995    0.38243007    0.00000000    0.22880000
opls_142-43    C    0.60658001    0.36855019    0.00000000    0.08450000
opls_145-44    C    0.58531979    0.43009991    0.00000000    0.14970000
opls_145-45    C    0.53854997    0.40053010    0.00000000    -0.23040000
opls_145-46    C    0.50889013    0.41723010    0.00000000    -0.22120000
opls_145-47    C    0.52506010    0.46336021    0.00000000    0.05740000
opls_145-48    C    0.57147019    0.49299021    0.00000000    -0.22120000
opls_145-49    C    0.60121993    0.47646019    0.00000000    -0.23040000
opls_145-50    C    0.63641003    0.35325022    0.00000000    -0.09730000
opls_142-51    C    0.49373019    0.47919021    0.00000000    -0.21380000
opls_280-52    C    0.61757003    0.30374990    0.00000000    0.22880000
opls_142-53    C    0.63145009    0.23803001    0.00000000    0.08450000
opls_145-54    C    0.56989992    0.15522017    0.00000000    0.14970000
opls_145-55    C    0.59947003    0.13802006    0.00000000    -0.23040000
opls_145-56    C    0.58277007    0.09166015    0.00000000    -0.22120000
opls_145-57    C    0.53664017    0.06170001    0.00000000    0.05740000
opls_145-58    C    0.50701011    0.07847990    0.00000000    -0.22120000
opls_145-59    C    0.52353996    0.12475993    0.00000000    -0.23040000
opls_145-60    C    0.64675011    0.28315988    0.00000000    -0.09730000
opls_142-61    C    0.52081007    0.01454014    0.00000000    -0.21380000
opls_280-62    C    0.69625001    0.31382003    0.00000000    0.22880000
opls_142-63    C    0.76197009    0.39342017    0.00000000    0.08450000
opls_145-64    C    0.84477996    0.41467992    0.00000000    0.14970000
opls_145-65    C    0.86198019    0.46145022    0.00000000    -0.23040000
opls_145-66    C    0.90833998    0.49111013    0.00000000    -0.22120000
opls_145-67    C    0.93830024    0.47494015    0.00000000    0.05740000
opls_145-68    C    0.92152003    0.42852989    0.00000000    -0.22120000
opls_145-69    C    0.87523996    0.39878026    0.00000000    -0.23040000
opls_145-70    C    0.71683987    0.36358990    0.00000000    -0.09730000
opls_142-71    C    0.98545993    0.50627003    0.00000000    -0.21380000
opls_144-72    H    0.42848993    0.65656020    0.00000000    0.09810000
opls_146-73    H    0.47589023    0.63531029    0.00000000    0.20900000
opls_910-74    H    0.34921988    0.55946008    0.00000000    0.25000000
opls_146-75    H    0.36308003    0.50007023    0.00000000    0.20900000
opls_146-76    H    0.52692002    0.60571020    0.00000000    0.20900000
opls_146-77    H    0.41558003    0.47120006    0.00000000    0.20900000
opls_144-78    H    0.54076017    0.55085018    0.00000000    0.20880000
opls_144-79    H    0.34344024    0.77193032    0.00000000    0.09810000
opls_146-80    H    0.36469006    0.84058012    0.00000000    0.20900000
opls_910-81    H    0.44054002    0.78976004    0.00000000    0.25000000
opls_146-82    H    0.49992996    0.86301009    0.00000000    0.20900000
opls_146-83    H    0.39428994    0.92121004    0.00000000    0.20900000
opls_146-84    H    0.52879991    0.94438015    0.00000000    0.20900000
opls_144-85    H    0.44914985    0.98992003    0.00000000    0.20880000
opls_144-86    H    0.22807020    0.57151024    0.00000000    0.09810000
opls_146-87    H    0.15941990    0.52410996    0.00000000    0.20900000
opls_910-88    H    0.21024029    0.65078026    0.00000000    0.25000000
opls_146-89    H    0.13698987    0.63692006    0.00000000    0.20900000
opls_146-90    H    0.07879023    0.47308014    0.00000000    0.20900000
opls_146-91    H    0.05561992    0.58442017    0.00000000    0.20900000
opls_144-92    H    0.01008001    0.45924001    0.00000000    0.20880000
opls_144-93    H    0.57151026    0.34344018    0.00000000    0.09810000
opls_146-94    H    0.52410996    0.36469008    0.00000000    0.20900000
opls_910-95    H    0.65077979    0.44053992    0.00000000    0.25000000
opls_146-96    H    0.63692016    0.49993015    0.00000000    0.20900000
opls_146-97    H    0.47308017    0.39429018    0.00000000    0.20900000
opls_146-98    H    0.58441997    0.52879994    0.00000000    0.20900000
opls_144-99    H    0.45924002    0.44915020    0.00000000    0.20880000
opls_144-100    H    0.65655995    0.22807006    0.00000000    0.09810000
opls_146-101    H    0.63530994    0.15941988    0.00000000    0.20900000
opls_910-102    H    0.55945998    0.21023996    0.00000000    0.25000000
opls_146-103    H    0.50007004    0.13698991    0.00000000    0.20900000
opls_146-104    H    0.60571006    0.07878996    0.00000000    0.20900000
opls_146-105    H    0.47120009    0.05561985    0.00000000    0.20900000
opls_144-106    H    0.55084982    0.01007997    0.00000000    0.20880000
opls_144-107    H    0.77192999    0.42849014    0.00000000    0.09810000
opls_146-108    H    0.84058010    0.47589004    0.00000000    0.20900000
opls_910-109    H    0.78975990    0.34922012    0.00000000    0.25000000
opls_146-110    H    0.86301013    0.36307994    0.00000000    0.20900000
opls_146-111    H    0.92121028    0.52692024    0.00000000    0.20900000
opls_146-112    H    0.94437994    0.41558021    0.00000000    0.20900000
opls_144-113    H    0.98991999    0.54075999    0.00000000    0.20880000
