#======================================================================
# Crystal Data Generated By AuToFF
#----------------------------------------------------------------------

data_AuToFF_phase_1

_cell_length_a                         16.8300
_cell_length_b                         29.1100
_cell_length_c                         7.6400
_cell_angle_alpha                      90.00
_cell_angle_beta                       90.00
_cell_angle_gamma                      90.00
_symmetry_space_group_name_H-M_alt     'P 1'
_symmetry_space_group_IT_number        1

loop_
_space_group_symop_operation_xyz
   'x, y, z'

loop_
   _atom_site_label
   _atom_site_type_symbol
   _atom_site_fract_x
   _atom_site_fract_y
   _atom_site_fract_z
   _atom_site_charge
opls_145-0    C    0.41730006    0.56260014    0.35579974    -0.09720000
opls_145-1    C    0.54120024    0.59039986    0.14529974    -0.14030000
opls_145-2    C    0.40709982    0.59819993    0.23770026    -0.13840000
opls_145-3    C    0.46860012    0.61209997    0.13140052    0.28860000
opls_142-4    C    0.98660012    0.83939986    0.37059948    0.13100000
opls_700-5    C    0.96239988    0.80880007    0.24229974    0.02140000
opls_145-6    C    0.99330006    0.81449983    0.07559948    -0.13560000
opls_145-7    C    0.93590018    0.76590003    0.28870026    -0.09520000
opls_145-8    C    0.98939988    0.77990003    0.95140052    -0.10400000
opls_145-9    C    0.93339988    0.73100000    0.16609948    -0.09730000
opls_700-10    C    0.57360012    0.50290003    0.61779974    0.05960000
opls_145-11    C    0.95460012    0.73849983    0.99340052    0.04650000
opls_145-12    C    0.94449970    0.70509997    0.87720026    -0.01220000
opls_700-13    C    0.87050030    0.70749983    0.79159948    0.03480000
opls_145-14    C    0.81300000    0.73829990    0.84909948    -0.17150000
opls_166-15    C    0.74069994    0.74249983    0.76429974    0.20710000
opls_166-16    C    0.72100000    0.71170010    0.63659948    0.20630000
opls_181-17    C    0.67260012    0.77039986    0.01740052    -0.15560000
opls_181-18    C    0.63620024    0.70670010    0.38859948    -0.15470000
opls_145-19    C    0.77709982    0.68090003    0.57759948    -0.18740000
opls_700-20    C    0.85209982    0.67909997    0.65340052    0.00720000
opls_145-21    C    0.59309982    0.46749983    0.72959948    -0.09590000
opls_700-22    C    0.90690018    0.64750017    0.59490052    0.00040000
opls_700-23    C    0.98369994    0.64700000    0.66629974    0.03690000
opls_700-24    C    0.00349970    0.67629990    0.80579974    0.03980000
opls_145-25    C    0.04069994    0.61719993    0.60109948    -0.18810000
opls_145-26    C    0.07839988    0.67300000    0.88120026    -0.18820000
opls_166-27    C    0.11709982    0.61719993    0.66800000    0.20320000
opls_166-28    C    0.13520024    0.64429990    0.81020026    0.20350000
opls_181-29    C    0.22060012    0.66039986    0.04959948    -0.15460000
opls_181-30    C    0.20820024    0.56009997    0.76229974    -0.15590000
opls_700-31    C    0.88530006    0.62129990    0.45370026    0.04860000
opls_145-32    C    0.61220024    0.54460014    0.63479974    -0.09720000
opls_145-33    C    0.93100000    0.62250017    0.30340052    -0.09640000
opls_145-34    C    0.91379976    0.59400000    0.16300000    -0.09710000
opls_145-35    C    0.82350030    0.59009997    0.46500000    -0.09730000
opls_145-36    C    0.80649970    0.56170010    0.32479974    -0.09640000
opls_700-37    C    0.85090018    0.56380007    0.17229974    0.05930000
opls_142-38    C    0.82920024    0.53649983    0.03100000    0.01700000
opls_145-39    C    0.66830006    0.55139986    0.76450000    -0.14150000
opls_145-40    C    0.65050030    0.47400000    0.85679974    -0.11050000
opls_145-41    C    0.68669994    0.51639986    0.87929974    0.28220000
opls_700-42    C    0.48939988    0.54019993    0.36909948    0.05690000
opls_145-43    C    0.55150030    0.55470010    0.26350000    -0.13050000
opls_145-44    C    0.58269994    0.43739986    0.35579974    -0.09720000
opls_145-45    C    0.45879976    0.40960014    0.14529974    -0.14030000
opls_145-46    C    0.59290018    0.40180007    0.23770026    -0.13840000
opls_145-47    C    0.53139988    0.38790003    0.13140052    0.28840000
opls_142-48    C    0.01339988    0.16060014    0.37059948    0.13100000
opls_700-49    C    0.03760012    0.19119993    0.24229974    0.02140000
opls_145-50    C    0.00669994    0.18550017    0.07559948    -0.13560000
opls_145-51    C    0.06409982    0.23409997    0.28870026    -0.09520000
opls_145-52    C    0.01060012    0.22009997    0.95140052    -0.10400000
opls_145-53    C    0.06660012    0.26900000    0.16609948    -0.09730000
opls_700-54    C    0.42639988    0.49709997    0.61779974    0.05960000
opls_145-55    C    0.04539988    0.26149983    0.99340052    0.04650000
opls_145-56    C    0.05550030    0.29490003    0.87720026    -0.01220000
opls_700-57    C    0.12950030    0.29250017    0.79159948    0.03480000
opls_145-58    C    0.18700000    0.26170010    0.84909948    -0.17140000
opls_166-59    C    0.25930006    0.25749983    0.76429974    0.20710000
opls_166-60    C    0.27900000    0.28829990    0.63659948    0.20620000
opls_181-61    C    0.32739988    0.22960014    0.01740052    -0.15560000
opls_181-62    C    0.36379976    0.29329990    0.38859948    -0.15480000
opls_145-63    C    0.22290018    0.31909997    0.57759948    -0.18740000
opls_700-64    C    0.14790018    0.32090003    0.65340052    0.00720000
opls_145-65    C    0.40690018    0.53250017    0.72959948    -0.09590000
opls_700-66    C    0.09309982    0.35249983    0.59490052    0.00040000
opls_700-67    C    0.01630006    0.35300000    0.66629974    0.03690000
opls_700-68    C    0.99649970    0.32370010    0.80579974    0.03980000
opls_145-69    C    0.95930006    0.38280007    0.60109948    -0.18820000
opls_145-70    C    0.92160012    0.32700000    0.88120026    -0.18820000
opls_166-71    C    0.88290018    0.38280007    0.66800000    0.20320000
opls_166-72    C    0.86479976    0.35570010    0.81020026    0.20360000
opls_181-73    C    0.77939988    0.33960014    0.04959948    -0.15460000
opls_181-74    C    0.79179976    0.43990003    0.76229974    -0.15600000
opls_700-75    C    0.11469994    0.37870010    0.45370026    0.04860000
opls_145-76    C    0.38779976    0.45539986    0.63479974    -0.09720000
opls_145-77    C    0.06900000    0.37749983    0.30340052    -0.09640000
opls_145-78    C    0.08620024    0.40600000    0.16300000    -0.09720000
opls_145-79    C    0.17650030    0.40990003    0.46500000    -0.09730000
opls_145-80    C    0.19349970    0.43829990    0.32479974    -0.09640000
opls_700-81    C    0.14909982    0.43619993    0.17229974    0.05930000
opls_142-82    C    0.17079976    0.46350017    0.03100000    0.01700000
opls_145-83    C    0.33169994    0.44860014    0.76450000    -0.14150000
opls_145-84    C    0.34950030    0.52600000    0.85679974    -0.11060000
opls_145-85    C    0.31330006    0.48360014    0.87929974    0.28230000
opls_700-86    C    0.51060012    0.45980007    0.36909948    0.05690000
opls_145-87    C    0.44850030    0.44529990    0.26350000    -0.13050000
opls_145-88    C    0.91730006    0.93739986    0.85579974    -0.09720000
opls_145-89    C    0.04120024    0.90960014    0.64529974    -0.14030000
opls_145-90    C    0.90709982    0.90180007    0.73770026    -0.13840000
opls_145-91    C    0.96860012    0.88790003    0.63140052    0.28840000
opls_142-92    C    0.48660012    0.66060014    0.87059948    0.13100000
opls_700-93    C    0.46239988    0.69119993    0.74229974    0.02140000
opls_145-94    C    0.49330006    0.68550017    0.57559948    -0.13560000
opls_145-95    C    0.43590018    0.73409997    0.78870026    -0.09520000
opls_145-96    C    0.48939988    0.72009997    0.45140052    -0.10400000
opls_145-97    C    0.43339988    0.76900000    0.66609948    -0.09720000
opls_700-98    C    0.07360012    0.99709997    0.11779974    0.05960000
opls_145-99    C    0.45460012    0.76150017    0.49340052    0.04660000
opls_145-100    C    0.44449970    0.79490003    0.37720026    -0.01220000
opls_700-101    C    0.37050030    0.79250017    0.29159948    0.03480000
opls_145-102    C    0.31300000    0.76170010    0.34909948    -0.17150000
opls_166-103    C    0.24069994    0.75749983    0.26429974    0.20710000
opls_166-104    C    0.22100000    0.78829990    0.13659948    0.20630000
opls_181-105    C    0.17260012    0.72960014    0.51740052    -0.15560000
opls_181-106    C    0.13620024    0.79329990    0.88859948    -0.15480000
opls_145-107    C    0.27709982    0.81909997    0.07759948    -0.18740000
opls_700-108    C    0.35209982    0.82090003    0.15340052    0.00720000
opls_145-109    C    0.09309982    0.03249983    0.22959948    -0.09590000
opls_700-110    C    0.40690018    0.85250017    0.09490052    0.00040000
opls_700-111    C    0.48369994    0.85300000    0.16629974    0.03690000
opls_700-112    C    0.50350030    0.82370010    0.30579974    0.03980000
opls_145-113    C    0.54069994    0.88280007    0.10109948    -0.18820000
opls_145-114    C    0.57839988    0.82700000    0.38120026    -0.18810000
opls_166-115    C    0.61709982    0.88280007    0.16800000    0.20330000
opls_166-116    C    0.63520024    0.85570010    0.31020026    0.20350000
opls_181-117    C    0.72060012    0.83960014    0.54959948    -0.15460000
opls_181-118    C    0.70820024    0.93990003    0.26229974    -0.15580000
opls_700-119    C    0.38530006    0.87870010    0.95370026    0.04860000
opls_145-120    C    0.11220024    0.95539986    0.13479974    -0.09720000
opls_145-121    C    0.43100000    0.87750017    0.80340052    -0.09640000
opls_145-122    C    0.41379976    0.90600000    0.66300000    -0.09720000
opls_145-123    C    0.32350030    0.90990003    0.96500000    -0.09730000
opls_145-124    C    0.30649970    0.93829990    0.82479974    -0.09630000
opls_700-125    C    0.35090018    0.93619993    0.67229974    0.05930000
opls_142-126    C    0.32920024    0.96350017    0.53100000    0.01700000
opls_145-127    C    0.16830006    0.94860014    0.26450000    -0.14140000
opls_145-128    C    0.15050030    0.02600000    0.35679974    -0.11060000
opls_145-129    C    0.18669994    0.98360014    0.37929974    0.28220000
opls_700-130    C    0.98939988    0.95980007    0.86909948    0.05690000
opls_145-131    C    0.05149970    0.94529990    0.76350000    -0.13050000
opls_145-132    C    0.08269994    0.06260014    0.85579974    -0.09720000
opls_145-133    C    0.95879976    0.09039986    0.64529974    -0.14030000
opls_145-134    C    0.09290018    0.09819993    0.73770026    -0.13840000
opls_145-135    C    0.03139988    0.11209997    0.63140052    0.28840000
opls_142-136    C    0.51339988    0.33939986    0.87059948    0.13100000
opls_700-137    C    0.53760012    0.30880007    0.74229974    0.02140000
opls_145-138    C    0.50669994    0.31449983    0.57559948    -0.13560000
opls_145-139    C    0.56409982    0.26590003    0.78870026    -0.09520000
opls_145-140    C    0.51060012    0.27990003    0.45140052    -0.10400000
opls_145-141    C    0.56660012    0.23100000    0.66609948    -0.09720000
opls_700-142    C    0.92639988    0.00290003    0.11779974    0.05960000
opls_145-143    C    0.54539988    0.23849983    0.49340052    0.04650000
opls_145-144    C    0.55549970    0.20509997    0.37720026    -0.01220000
opls_700-145    C    0.62950030    0.20750017    0.29159948    0.03480000
opls_145-146    C    0.68700000    0.23829990    0.34909948    -0.17140000
opls_166-147    C    0.75930006    0.24249983    0.26429974    0.20710000
opls_166-148    C    0.77900000    0.21170010    0.13659948    0.20630000
opls_181-149    C    0.82739988    0.27039986    0.51740052    -0.15550000
opls_181-150    C    0.86379976    0.20670010    0.88859948    -0.15480000
opls_145-151    C    0.72290018    0.18090003    0.07759948    -0.18740000
opls_700-152    C    0.64790018    0.17909997    0.15340052    0.00720000
opls_145-153    C    0.90690018    0.96749983    0.22959948    -0.09590000
opls_700-154    C    0.59309982    0.14750017    0.09490052    0.00040000
opls_700-155    C    0.51630006    0.14700000    0.16629974    0.03690000
opls_700-156    C    0.49649970    0.17629990    0.30579974    0.03980000
opls_145-157    C    0.45930006    0.11719993    0.10109948    -0.18800000
opls_145-158    C    0.42160012    0.17300000    0.38120026    -0.18820000
opls_166-159    C    0.38290018    0.11719993    0.16800000    0.20320000
opls_166-160    C    0.36479976    0.14429990    0.31020026    0.20350000
opls_181-161    C    0.27939988    0.16039986    0.54959948    -0.15460000
opls_181-162    C    0.29179976    0.06009997    0.26229974    -0.15600000
opls_700-163    C    0.61469994    0.12129990    0.95370026    0.04870000
opls_145-164    C    0.88779976    0.04460014    0.13479974    -0.09720000
opls_145-165    C    0.56900000    0.12249983    0.80340052    -0.09640000
opls_145-166    C    0.58620024    0.09400000    0.66300000    -0.09710000
opls_145-167    C    0.67650030    0.09009997    0.96500000    -0.09730000
opls_145-168    C    0.69349970    0.06170010    0.82479974    -0.09620000
opls_700-169    C    0.64909982    0.06380007    0.67229974    0.05930000
opls_142-170    C    0.67079976    0.03650017    0.53100000    0.01700000
opls_145-171    C    0.83169994    0.05139986    0.26450000    -0.14150000
opls_145-172    C    0.84949970    0.97400000    0.35679974    -0.11060000
opls_145-173    C    0.81330006    0.01639986    0.37929974    0.28220000
opls_700-174    C    0.01060012    0.04019993    0.86909948    0.05690000
opls_145-175    C    0.94850030    0.05470010    0.76350000    -0.13040000
opls_701-176    C    0.00000000    0.00000000    0.00000000    0.01270000
opls_701-177    C    0.50000000    0.50000000    0.50000000    0.01270000
opls_146-178    H    0.36550030    0.55180007    0.44250000    0.05320000
opls_146-179    H    0.59290018    0.60170010    0.05940052    0.05320000
opls_146-180    H    0.34730006    0.61639986    0.22770026    0.05310000
opls_144-181    H    0.46139988    0.36049983    0.81859948    0.03130000
opls_146-182    H    0.47749970    0.34870010    0.54179974    0.05310000
opls_146-183    H    0.58409982    0.25900000    0.92870026    0.05310000
opls_146-184    H    0.48530006    0.28570010    0.31479974    0.05310000
opls_146-185    H    0.58669994    0.19539986    0.70990052    0.05250000
opls_146-186    H    0.32490018    0.73919993    0.46850000    0.05250000
opls_185-187    H    0.85550030    0.23690003    0.56309948    0.07310000
opls_185-188    H    0.86739988    0.30039986    0.55490052    0.07290000
opls_185-189    H    0.76690018    0.27480007    0.58250000    0.07290000
opls_185-190    H    0.33979976    0.32800000    0.34490052    0.07320000
opls_185-191    H    0.32969994    0.26470010    0.31959948    0.07290000
opls_185-192    H    0.42950030    0.29070010    0.35379974    0.07300000
opls_146-193    H    0.26149970    0.84319993    0.96520026    0.05310000
opls_146-194    H    0.56200000    0.43290003    0.71740052    0.05320000
opls_146-195    H    0.52479976    0.90770010    0.99129974    0.05250000
opls_146-196    H    0.59330006    0.80590003    0.50259948    0.05250000
opls_185-197    H    0.74150030    0.30739986    0.03379974    0.07290000
opls_185-198    H    0.74739988    0.36500000    0.13879974    0.07300000
opls_185-199    H    0.83900000    0.33000000    0.10990052    0.07310000
opls_185-200    H    0.72520024    0.43809997    0.73690052    0.07310000
opls_185-201    H    0.80609982    0.42180007    0.89079974    0.07290000
opls_185-202    H    0.81109982    0.47739986    0.77079974    0.07290000
opls_146-203    H    0.59800000    0.57390003    0.54109948    0.05320000
opls_146-204    H    0.98350030    0.64709997    0.29400000    0.05310000
opls_146-205    H    0.95190018    0.59549983    0.03970026    0.05260000
opls_146-206    H    0.78650030    0.58790003    0.58979974    0.05250000
opls_146-207    H    0.75539988    0.53609997    0.33400000    0.05310000
opls_144-208    H    0.88290018    0.52870010    0.94520026    0.03130000
opls_146-209    H    0.69930006    0.58609997    0.77650000    0.05250000
opls_146-210    H    0.66779976    0.44390003    0.94400000    0.05320000
opls_146-211    H    0.61190018    0.53719993    0.27320026    0.05310000
opls_146-212    H    0.63449970    0.44819993    0.44250000    0.05310000
opls_146-213    H    0.40709982    0.39829990    0.05940052    0.05320000
opls_146-214    H    0.65269994    0.38360014    0.22770026    0.05310000
opls_144-215    H    0.53860012    0.63950017    0.81859948    0.03130000
opls_146-216    H    0.52250030    0.65129990    0.54179974    0.05320000
opls_146-217    H    0.41590018    0.74100000    0.92870026    0.05310000
opls_146-218    H    0.51469994    0.71429990    0.31479974    0.05310000
opls_146-219    H    0.41330006    0.80460014    0.70990052    0.05250000
opls_146-220    H    0.67509982    0.26080007    0.46850000    0.05250000
opls_185-221    H    0.14450030    0.76309997    0.56309948    0.07310000
opls_185-222    H    0.13260012    0.69960014    0.55490052    0.07290000
opls_185-223    H    0.23309982    0.72519993    0.58250000    0.07290000
opls_185-224    H    0.66020024    0.67200000    0.34490052    0.07310000
opls_185-225    H    0.67030006    0.73529990    0.31959948    0.07290000
opls_185-226    H    0.57049970    0.70929990    0.35379974    0.07290000
opls_146-227    H    0.73850030    0.15680007    0.96520026    0.05310000
opls_146-228    H    0.43800000    0.56709997    0.71740052    0.05320000
opls_146-229    H    0.47520024    0.09229990    0.99129974    0.05250000
opls_146-230    H    0.40669994    0.19409997    0.50259948    0.05250000
opls_185-231    H    0.25849970    0.69260014    0.03379974    0.07290000
opls_185-232    H    0.25260012    0.63500000    0.13879974    0.07290000
opls_185-233    H    0.16100000    0.67000000    0.10990052    0.07310000
opls_185-234    H    0.27479976    0.56190003    0.73690052    0.07310000
opls_185-235    H    0.19390018    0.57819993    0.89079974    0.07290000
opls_185-236    H    0.18890018    0.52260014    0.77079974    0.07290000
opls_146-237    H    0.40200000    0.42609997    0.54109948    0.05320000
opls_146-238    H    0.01650030    0.35290003    0.29400000    0.05310000
opls_146-239    H    0.04809982    0.40450017    0.03970026    0.05250000
opls_146-240    H    0.21350030    0.41209997    0.58979974    0.05250000
opls_146-241    H    0.24460012    0.46390003    0.33400000    0.05310000
opls_144-242    H    0.11709982    0.47129990    0.94520026    0.03130000
opls_146-243    H    0.30069994    0.41390003    0.77650000    0.05250000
opls_146-244    H    0.33220024    0.55609997    0.94400000    0.05320000
opls_146-245    H    0.38809982    0.46280007    0.27320026    0.05310000
opls_146-246    H    0.86549970    0.94819993    0.94250000    0.05310000
opls_146-247    H    0.09290018    0.89829990    0.55940052    0.05320000
opls_146-248    H    0.84730006    0.88360014    0.72770026    0.05320000
opls_144-249    H    0.96139988    0.13949983    0.31859948    0.03130000
opls_146-250    H    0.97750030    0.15129990    0.04179974    0.05320000
opls_146-251    H    0.08409982    0.24100000    0.42870026    0.05310000
opls_146-252    H    0.98530006    0.21429990    0.81479974    0.05320000
opls_146-253    H    0.08669994    0.30460014    0.20990052    0.05250000
opls_146-254    H    0.82490018    0.76080007    0.96850000    0.05250000
opls_185-255    H    0.35549970    0.26309997    0.06309948    0.07310000
opls_185-256    H    0.36739988    0.19960014    0.05490052    0.07290000
opls_185-257    H    0.26690018    0.22519993    0.08250000    0.07300000
opls_185-258    H    0.83979976    0.17200000    0.84490052    0.07310000
opls_185-259    H    0.82969994    0.23529990    0.81959948    0.07290000
opls_185-260    H    0.92950030    0.20929990    0.85379974    0.07290000
opls_146-261    H    0.76150030    0.65680007    0.46520026    0.05320000
opls_146-262    H    0.06200000    0.06709997    0.21740052    0.05320000
opls_146-263    H    0.02479976    0.59229990    0.49129974    0.05250000
opls_146-264    H    0.09330006    0.69409997    0.00259948    0.05250000
opls_185-265    H    0.24150030    0.19260014    0.53379974    0.07290000
opls_185-266    H    0.24739988    0.13500000    0.63879974    0.07290000
opls_185-267    H    0.33900000    0.17000000    0.60990052    0.07310000
opls_185-268    H    0.22520024    0.06190003    0.23690052    0.07310000
opls_185-269    H    0.30609982    0.07819993    0.39079974    0.07290000
opls_185-270    H    0.31109982    0.02260014    0.27079974    0.07290000
opls_146-271    H    0.09800000    0.92609997    0.04109948    0.05320000
opls_146-272    H    0.48349970    0.85290003    0.79400000    0.05310000
opls_146-273    H    0.45190018    0.90450017    0.53970026    0.05250000
opls_146-274    H    0.28649970    0.91209997    0.08979974    0.05250000
opls_146-275    H    0.25539988    0.96390003    0.83400000    0.05310000
opls_144-276    H    0.38290018    0.97129990    0.44520026    0.03130000
opls_146-277    H    0.19930006    0.91390003    0.27650000    0.05250000
opls_146-278    H    0.16779976    0.05609997    0.44400000    0.05320000
opls_146-279    H    0.11190018    0.96280007    0.77320026    0.05320000
opls_146-280    H    0.13449970    0.05180007    0.94250000    0.05310000
opls_146-281    H    0.90709982    0.10170010    0.55940052    0.05320000
opls_146-282    H    0.15269994    0.11639986    0.72770026    0.05310000
opls_144-283    H    0.03860012    0.86049983    0.31859948    0.03130000
opls_146-284    H    0.02249970    0.84870010    0.04179974    0.05310000
opls_146-285    H    0.91590018    0.75900000    0.42870026    0.05310000
opls_146-286    H    0.01469994    0.78570010    0.81479974    0.05310000
opls_146-287    H    0.91330006    0.69539986    0.20990052    0.05250000
opls_146-288    H    0.17509982    0.23919993    0.96850000    0.05250000
opls_185-289    H    0.64450030    0.73690003    0.06309948    0.07310000
opls_185-290    H    0.63260012    0.80039986    0.05490052    0.07290000
opls_185-291    H    0.73309982    0.77480007    0.08250000    0.07290000
opls_185-292    H    0.16020024    0.82800000    0.84490052    0.07310000
opls_185-293    H    0.17030006    0.76470010    0.81959948    0.07290000
opls_185-294    H    0.07049970    0.79070010    0.85379974    0.07290000
opls_146-295    H    0.23850030    0.34319993    0.46520026    0.05310000
opls_146-296    H    0.93800000    0.93290003    0.21740052    0.05320000
opls_146-297    H    0.97520024    0.40770010    0.49129974    0.05250000
opls_146-298    H    0.90669994    0.30590003    0.00259948    0.05250000
opls_185-299    H    0.75850030    0.80739986    0.53379974    0.07300000
opls_185-300    H    0.75260012    0.86500000    0.63879974    0.07290000
opls_185-301    H    0.66100000    0.83000000    0.60990052    0.07310000
opls_185-302    H    0.77479976    0.93809997    0.23690052    0.07310000
opls_185-303    H    0.69390018    0.92180007    0.39079974    0.07290000
opls_185-304    H    0.68890018    0.97739986    0.27079974    0.07290000
opls_146-305    H    0.90200000    0.07390003    0.04109948    0.05320000
opls_146-306    H    0.51650030    0.14709997    0.79400000    0.05310000
opls_146-307    H    0.54809982    0.09550017    0.53970026    0.05250000
opls_146-308    H    0.71350030    0.08790003    0.08979974    0.05250000
opls_146-309    H    0.74460012    0.03609997    0.83400000    0.05310000
opls_144-310    H    0.61709982    0.02870010    0.44520026    0.03140000
opls_146-311    H    0.80069994    0.08609997    0.27650000    0.05250000
opls_146-312    H    0.83220024    0.94390003    0.44400000    0.05320000
opls_146-313    H    0.88809982    0.03719993    0.77320026    0.05310000
opls_750-314    N    0.24549970    0.48100000    0.98620026    -0.16820000
opls_750-315    N    0.46009982    0.65350017    0.02829974    -0.24300000
opls_750-316    N    0.75450030    0.51900000    0.98620026    -0.16820000
opls_750-317    N    0.53990018    0.34650017    0.02829974    -0.24300000
opls_750-318    N    0.74550030    0.01900000    0.48620026    -0.16810000
opls_750-319    N    0.96009982    0.84650017    0.52829974    -0.24300000
opls_750-320    N    0.25450030    0.98100000    0.48620026    -0.16820000
opls_750-321    N    0.03990018    0.15349983    0.52829974    -0.24280000
opls_179-322    O    0.68209982    0.76939986    0.83570026    -0.09700000
opls_179-323    O    0.64550030    0.71119993    0.56909948    -0.09810000
opls_179-324    O    0.16830006    0.58129990    0.62759948    -0.10120000
opls_179-325    O    0.20850030    0.64070010    0.88870026    -0.10700000
opls_179-326    O    0.31790018    0.23060014    0.83570026    -0.09690000
opls_179-327    O    0.35450030    0.28880007    0.56909948    -0.09810000
opls_179-328    O    0.83169994    0.41870010    0.62759948    -0.10120000
opls_179-329    O    0.79150030    0.35929990    0.88870026    -0.10700000
opls_179-330    O    0.18209982    0.73060014    0.33570026    -0.09700000
opls_179-331    O    0.14549970    0.78880007    0.06909948    -0.09800000
opls_179-332    O    0.66830006    0.91870010    0.12759948    -0.10120000
opls_179-333    O    0.70849970    0.85929990    0.38870026    -0.10700000
opls_179-334    O    0.81790018    0.26939986    0.33570026    -0.09700000
opls_179-335    O    0.85450030    0.21119993    0.06909948    -0.09810000
opls_179-336    O    0.33169994    0.08129990    0.12759948    -0.10120000
opls_179-337    O    0.29150030    0.14070010    0.38870026    -0.10700000
