#======================================================================
# Crystal Data Generated By AuToFF
#----------------------------------------------------------------------

data_AuToFF_phase_1

_cell_length_a                         30.2880
_cell_length_b                         30.2880
_cell_length_c                         3.6239
_cell_angle_alpha                      90.00
_cell_angle_beta                       90.00
_cell_angle_gamma                      120.00
_symmetry_space_group_name_H-M_alt     'P 1'
_symmetry_space_group_IT_number        1

loop_
_space_group_symop_operation_xyz
   'x, y, z'

loop_
   _atom_site_label
   _atom_site_type_symbol
   _atom_site_fract_x
   _atom_site_fract_y
   _atom_site_fract_z
   _atom_site_charge
opls_700-0    C    0.69058999    0.38688983    0.38036094    -0.06110000
opls_700-1    C    0.72050993    0.36301009    0.39054886    0.02960000
opls_142-2    C    0.77739990    0.39582001    0.39128011    -0.09620000
opls_142-3    C    0.80897011    0.38469008    0.57541047    -0.13320000
opls_145-4    C    0.89616015    0.39894008    0.48329976    -0.11960000
opls_145-5    C    0.94907998    0.43079994    0.47534976    -0.13280000
opls_700-6    C    0.97137993    0.48289985    0.56477000    0.06130000
opls_145-7    C    0.93906978    0.50227982    0.65619912    -0.13270000
opls_145-8    C    0.88613005    0.47066013    0.65263114    -0.11820000
opls_700-9    C    0.86447992    0.41881985    0.56733905    0.09800000
opls_261-10    C    0.71563993    0.44161992    0.32670879    0.22920000
opls_700-11    C    0.61310980    0.30369978    0.38036094    -0.06110000
opls_700-12    C    0.63698991    0.35750002    0.39054886    0.02960000
opls_142-13    C    0.60418008    0.38157992    0.39128011    -0.09620000
opls_142-14    C    0.61530989    0.42427997    0.57541047    -0.13320000
opls_145-15    C    0.60106014    0.49722000    0.48329976    -0.11960000
opls_145-16    C    0.56920013    0.51828009    0.47534976    -0.13280000
opls_700-17    C    0.51709991    0.48848006    0.56477000    0.06130000
opls_145-18    C    0.49772014    0.43678999    0.65619912    -0.13270000
opls_145-19    C    0.52933987    0.41546989    0.65263114    -0.11820000
opls_700-20    C    0.58117980    0.44565992    0.56733905    0.09800000
opls_261-21    C    0.55837977    0.27401985    0.32670879    0.22920000
opls_700-22    C    0.69630002    0.30941000    0.38036094    -0.06110000
opls_700-23    C    0.64249983    0.27948989    0.39054886    0.02960000
opls_142-24    C    0.61842002    0.22260007    0.39128011    -0.09620000
opls_142-25    C    0.57572001    0.19102995    0.57541047    -0.13320000
opls_145-26    C    0.50278004    0.10383993    0.48329976    -0.11960000
opls_145-27    C    0.48171989    0.05091997    0.47534976    -0.13280000
opls_700-28    C    0.51152016    0.02862009    0.56477000    0.06130000
opls_145-29    C    0.56320989    0.06092981    0.65619912    -0.13270000
opls_145-30    C    0.58453008    0.11386998    0.65263114    -0.11820000
opls_700-31    C    0.55434009    0.13551985    0.56733905    0.09800000
opls_261-32    C    0.72597978    0.28435985    0.32670879    0.22920000
opls_700-33    C    0.30940982    0.61310978    0.38036094    -0.06110000
opls_700-34    C    0.27949007    0.63698991    0.39054886    0.02960000
opls_142-35    C    0.22260010    0.60417999    0.39128011    -0.09620000
opls_142-36    C    0.19102989    0.61530992    0.57541047    -0.13320000
opls_145-37    C    0.10383985    0.60105992    0.48329976    -0.11960000
opls_145-38    C    0.05092002    0.56920006    0.47534976    -0.13280000
opls_700-39    C    0.02861988    0.51709977    0.56477000    0.06130000
opls_145-40    C    0.06093003    0.49771980    0.65619912    -0.13270000
opls_145-41    C    0.11386995    0.52933987    0.65263114    -0.11820000
opls_700-42    C    0.13551989    0.58117977    0.56733905    0.09800000
opls_261-43    C    0.28436007    0.55838008    0.32670879    0.22920000
opls_700-44    C    0.38689001    0.69629983    0.38036094    -0.06110000
opls_700-45    C    0.36301009    0.64249998    0.39054886    0.02960000
opls_142-46    C    0.39581992    0.61842008    0.39128011    -0.09620000
opls_142-47    C    0.38469011    0.57572003    0.57541047    -0.13320000
opls_145-48    C    0.39893986    0.50278000    0.48329976    -0.11960000
opls_145-49    C    0.43079987    0.48171991    0.47534976    -0.13280000
opls_700-50    C    0.48290009    0.51151994    0.56477000    0.06130000
opls_145-51    C    0.50227986    0.56321001    0.65619912    -0.13270000
opls_145-52    C    0.47066013    0.58453011    0.65263114    -0.11810000
opls_700-53    C    0.41882020    0.55434008    0.56733905    0.09800000
opls_261-54    C    0.44162003    0.72597977    0.32670879    0.22920000
opls_700-55    C    0.30369998    0.69059000    0.38036094    -0.06110000
opls_700-56    C    0.35750017    0.72051011    0.39054886    0.02960000
opls_142-57    C    0.38157998    0.77739993    0.39128011    -0.09620000
opls_142-58    C    0.42427999    0.80897005    0.57541047    -0.13320000
opls_145-59    C    0.49721996    0.89616007    0.48329976    -0.11960000
opls_145-60    C    0.51828011    0.94908003    0.47534976    -0.13280000
opls_700-61    C    0.48847984    0.97137991    0.56477000    0.06130000
opls_145-62    C    0.43678992    0.93906980    0.65619912    -0.13270000
opls_145-63    C    0.41546992    0.88613002    0.65263114    -0.11820000
opls_700-64    C    0.44565972    0.86447977    0.56733905    0.09800000
opls_261-65    C    0.27402003    0.71563977    0.32670879    0.22930000
opls_144-66    H    0.79405001    0.43157005    0.24106901    0.11110000
opls_144-67    H    0.79465009    0.34994994    0.73495957    0.11140000
opls_146-68    H    0.87966986    0.35890985    0.41487900    0.11490000
opls_146-69    H    0.97237992    0.41466014    0.39344905    0.11880000
opls_146-70    H    0.95457981    0.54162991    0.73824057    0.11960000
opls_146-71    H    0.86199990    0.48627001    0.72593063    0.11240000
opls_144-72    H    0.56842987    0.36247978    0.24106901    0.11110000
opls_144-73    H    0.65005006    0.44469996    0.73495957    0.11140000
opls_146-74    H    0.64108988    0.52076006    0.41487900    0.11490000
opls_146-75    H    0.58534001    0.55771977    0.39344905    0.11880000
opls_146-76    H    0.45837009    0.41294989    0.73824057    0.11960000
opls_146-77    H    0.51372992    0.37572979    0.72593063    0.11250000
opls_144-78    H    0.63752012    0.20595017    0.24106901    0.11100000
opls_144-79    H    0.55530018    0.20535010    0.73495957    0.11140000
opls_146-80    H    0.47923993    0.12033009    0.41487900    0.11490000
opls_146-81    H    0.44228007    0.02762009    0.39344905    0.11880000
opls_146-82    H    0.58704991    0.04541982    0.73824057    0.11960000
opls_146-83    H    0.62426998    0.13799982    0.72593063    0.11240000
opls_144-84    H    0.20594999    0.56842995    0.24106901    0.11100000
opls_144-85    H    0.20534991    0.65005006    0.73495957    0.11150000
opls_146-86    H    0.12032995    0.64108977    0.41487900    0.11490000
opls_146-87    H    0.02762008    0.58533986    0.39344905    0.11880000
opls_146-88    H    0.04542019    0.45837009    0.73824057    0.11960000
opls_146-89    H    0.13800010    0.51372999    0.72593063    0.11240000
opls_144-90    H    0.43156994    0.63751983    0.24106901    0.11100000
opls_144-91    H    0.34994994    0.55530004    0.73495957    0.11140000
opls_146-92    H    0.35891012    0.47923994    0.41487900    0.11490000
opls_146-93    H    0.41465980    0.44227985    0.39344905    0.11880000
opls_146-94    H    0.54162991    0.58705011    0.73824057    0.11960000
opls_146-95    H    0.48626989    0.62426983    0.72593063    0.11240000
opls_144-96    H    0.36247988    0.79404983    0.24106901    0.11100000
opls_144-97    H    0.44469982    0.79464990    0.73495957    0.11140000
opls_146-98    H    0.52076007    0.87966991    0.41487900    0.11490000
opls_146-99    H    0.55771993    0.97237991    0.39344905    0.11880000
opls_146-100    H    0.41294990    0.95457980    0.73824057    0.11960000
opls_146-101    H    0.37572983    0.86199980    0.72593063    0.11240000
opls_262-102    N    0.73561011    0.48526011    0.28244985    -0.31250000
opls_262-103    N    0.51473974    0.25034979    0.28244985    -0.31250000
opls_262-104    N    0.74965015    0.26439010    0.28244985    -0.31250000
opls_262-105    N    0.26438989    0.51473989    0.28244985    -0.31250000
opls_262-106    N    0.48526007    0.74964983    0.28244985    -0.31250000
opls_262-107    N    0.25034985    0.73560990    0.28244985    -0.31250000
