#======================================================================
# Crystal Data Generated By AuToFF
#----------------------------------------------------------------------

data_AuToFF_phase_1

_cell_length_a                         34.1384
_cell_length_b                         35.2108
_cell_length_c                         3.8136
_cell_angle_alpha                      90.00
_cell_angle_beta                       107.41
_cell_angle_gamma                      90.00
_symmetry_space_group_name_H-M_alt     'P 1'
_symmetry_space_group_IT_number        1

loop_
_space_group_symop_operation_xyz
   'x, y, z'

loop_
   _atom_site_label
   _atom_site_type_symbol
   _atom_site_fract_x
   _atom_site_fract_y
   _atom_site_fract_z
   _atom_site_charge
opls_700-0    C    0.03470014    0.91869994    0.46850095    0.02870000
opls_700-1    C    0.03409986    0.95929999    0.44399864    0.02910000
opls_145-2    C    0.06550004    0.98040005    0.34459883    -0.11260000
opls_700-3    C    0.92870005    0.89669988    0.52859977    0.06370000
opls_145-4    C    0.93220010    0.86080010    0.70629926    -0.12970000
opls_145-5    C    0.89769993    0.83899997    0.68859856    -0.13210000
opls_700-6    C    0.85889991    0.85289996    0.49330006    0.09690000
opls_145-7    C    0.85520017    0.88909994    0.32100065    -0.13000000
opls_145-8    C    0.88980013    0.91049990    0.33280111    -0.12650000
opls_142-9    C    0.17759999    0.83059999    0.52949841    -0.09630000
opls_700-10    C    0.78450002    0.77039999    0.47479966    0.06650000
opls_145-11    C    0.74610012    0.78850012    0.38989898    -0.12860000
opls_145-12    C    0.71189995    0.76840004    0.41609964    -0.11230000
opls_700-13    C    0.67870006    0.70849995    0.53249937    -0.00330000
opls_423-14    C    0.64400004    0.26859998    0.54960097    0.23850000
opls_700-15    C    0.53470014    0.41869994    0.46850095    0.02880000
opls_700-16    C    0.53409986    0.45929999    0.44399864    0.02910000
opls_145-17    C    0.56550004    0.48040005    0.34459883    -0.11260000
opls_700-18    C    0.42870005    0.39669988    0.52859977    0.06370000
opls_145-19    C    0.43220010    0.36080010    0.70629926    -0.12960000
opls_145-20    C    0.39769993    0.33899997    0.68859856    -0.13220000
opls_700-21    C    0.35889991    0.35289996    0.49330006    0.09690000
opls_145-22    C    0.35520017    0.38909994    0.32100065    -0.13000000
opls_145-23    C    0.38980013    0.41049990    0.33280111    -0.12650000
opls_142-24    C    0.67759999    0.33059999    0.52949841    -0.09630000
opls_700-25    C    0.28450002    0.27039999    0.47479966    0.06660000
opls_145-26    C    0.24610012    0.28850012    0.38989898    -0.12860000
opls_145-27    C    0.21189995    0.26840004    0.41609964    -0.11230000
opls_700-28    C    0.17870006    0.20849995    0.53249937    -0.00330000
opls_423-29    C    0.14400004    0.76859998    0.54960097    0.23850000
opls_700-30    C    0.96529986    0.91869994    0.53149905    0.02870000
opls_700-31    C    0.96590005    0.95929999    0.55599861    0.02920000
opls_145-32    C    0.93449987    0.98040005    0.65539842    -0.11260000
opls_700-33    C    0.07129995    0.89669988    0.47140023    0.06370000
opls_145-34    C    0.06779990    0.86080010    0.29370074    -0.12970000
opls_145-35    C    0.10229998    0.83899997    0.31139869    -0.13220000
opls_700-36    C    0.14110009    0.85289996    0.50669994    0.09690000
opls_145-37    C    0.14480012    0.88909994    0.67899935    -0.13000000
opls_145-38    C    0.11019987    0.91049990    0.66719889    -0.12650000
opls_142-39    C    0.82239992    0.83059999    0.47049884    -0.09630000
opls_700-40    C    0.21549998    0.77039999    0.52520034    0.06650000
opls_145-41    C    0.25390017    0.78850012    0.61010102    -0.12860000
opls_145-42    C    0.28810005    0.76840004    0.58390036    -0.11230000
opls_700-43    C    0.32129994    0.70849995    0.46750063    -0.00330000
opls_423-44    C    0.35599996    0.26859998    0.45039903    0.23850000
opls_700-45    C    0.46529986    0.41869994    0.53149905    0.02870000
opls_700-46    C    0.46590005    0.45929999    0.55599861    0.02910000
opls_145-47    C    0.43449987    0.48040005    0.65539842    -0.11260000
opls_700-48    C    0.57129995    0.39669988    0.47140023    0.06370000
opls_145-49    C    0.56779990    0.36080010    0.29370074    -0.12970000
opls_145-50    C    0.60229998    0.33899997    0.31139869    -0.13220000
opls_700-51    C    0.64110009    0.35289996    0.50669994    0.09690000
opls_145-52    C    0.64480012    0.38909994    0.67899935    -0.13000000
opls_145-53    C    0.61019987    0.41049990    0.66719889    -0.12650000
opls_142-54    C    0.32239992    0.33059999    0.47049884    -0.09630000
opls_700-55    C    0.71549998    0.27039999    0.52520034    0.06650000
opls_145-56    C    0.75390017    0.28850012    0.61010102    -0.12850000
opls_145-57    C    0.78810005    0.26840004    0.58390036    -0.11230000
opls_700-58    C    0.82129994    0.20849995    0.46750063    -0.00330000
opls_423-59    C    0.85599996    0.76859998    0.45039903    0.23850000
opls_700-60    C    0.96529986    0.08130006    0.53149905    0.02870000
opls_700-61    C    0.96590005    0.04070001    0.55599861    0.02910000
opls_145-62    C    0.93449987    0.01959995    0.65539842    -0.11260000
opls_700-63    C    0.07129995    0.10330012    0.47140023    0.06370000
opls_145-64    C    0.06779990    0.13919990    0.29370074    -0.12970000
opls_145-65    C    0.10229998    0.16100003    0.31139869    -0.13220000
opls_700-66    C    0.14110009    0.14710004    0.50669994    0.09690000
opls_145-67    C    0.14480012    0.11090006    0.67899935    -0.13000000
opls_145-68    C    0.11019987    0.08950010    0.66719889    -0.12650000
opls_142-69    C    0.82239992    0.16940001    0.47049884    -0.09630000
opls_700-70    C    0.21549998    0.22960001    0.52520034    0.06650000
opls_145-71    C    0.25390017    0.21149988    0.61010102    -0.12860000
opls_145-72    C    0.28810005    0.23159996    0.58390036    -0.11230000
opls_700-73    C    0.32129994    0.29150005    0.46750063    -0.00330000
opls_423-74    C    0.35599996    0.73140002    0.45039903    0.23850000
opls_700-75    C    0.46529986    0.58130006    0.53149905    0.02870000
opls_700-76    C    0.46590005    0.54070001    0.55599861    0.02910000
opls_145-77    C    0.43449987    0.51959995    0.65539842    -0.11260000
opls_700-78    C    0.57129995    0.60330012    0.47140023    0.06370000
opls_145-79    C    0.56779990    0.63919990    0.29370074    -0.12970000
opls_145-80    C    0.60229998    0.66100003    0.31139869    -0.13220000
opls_700-81    C    0.64110009    0.64710004    0.50669994    0.09690000
opls_145-82    C    0.64480012    0.61090006    0.67899935    -0.12990000
opls_145-83    C    0.61019987    0.58950010    0.66719889    -0.12650000
opls_142-84    C    0.32239992    0.66940001    0.47049884    -0.09630000
opls_700-85    C    0.71549998    0.72960001    0.52520034    0.06650000
opls_145-86    C    0.75390017    0.71149988    0.61010102    -0.12860000
opls_145-87    C    0.78810005    0.73159996    0.58390036    -0.11230000
opls_700-88    C    0.82129994    0.79150005    0.46750063    -0.00330000
opls_423-89    C    0.85599996    0.23140002    0.45039903    0.23870000
opls_700-90    C    0.03470014    0.08130006    0.46850095    0.02870000
opls_700-91    C    0.03409986    0.04070001    0.44399864    0.02910000
opls_145-92    C    0.06550004    0.01959995    0.34459883    -0.11260000
opls_700-93    C    0.92870005    0.10330012    0.52859977    0.06370000
opls_145-94    C    0.93220010    0.13919990    0.70629926    -0.12960000
opls_145-95    C    0.89769993    0.16100003    0.68859856    -0.13220000
opls_700-96    C    0.85889991    0.14710004    0.49330006    0.09690000
opls_145-97    C    0.85520017    0.11090006    0.32100065    -0.13000000
opls_145-98    C    0.88980013    0.08950010    0.33280111    -0.12640000
opls_142-99    C    0.17759999    0.16940001    0.52949841    -0.09630000
opls_700-100    C    0.78450002    0.22960001    0.47479966    0.06650000
opls_145-101    C    0.74610012    0.21149988    0.38989898    -0.12860000
opls_145-102    C    0.71189995    0.23159996    0.41609964    -0.11230000
opls_700-103    C    0.67870006    0.29150005    0.53249937    -0.00330000
opls_423-104    C    0.64400004    0.73140002    0.54960097    0.23850000
opls_700-105    C    0.53470014    0.58130006    0.46850095    0.02870000
opls_700-106    C    0.53409986    0.54070001    0.44399864    0.02910000
opls_145-107    C    0.56550004    0.51959995    0.34459883    -0.11260000
opls_700-108    C    0.42870005    0.60330012    0.52859977    0.06370000
opls_145-109    C    0.43220010    0.63919990    0.70629926    -0.12970000
opls_145-110    C    0.39769993    0.66100003    0.68859856    -0.13220000
opls_700-111    C    0.35889991    0.64710004    0.49330006    0.09700000
opls_145-112    C    0.35520017    0.61090006    0.32100065    -0.12990000
opls_145-113    C    0.38980013    0.58950010    0.33280111    -0.12650000
opls_142-114    C    0.67759999    0.66940001    0.52949841    -0.09630000
opls_700-115    C    0.28450002    0.72960001    0.47479966    0.06650000
opls_145-116    C    0.24610012    0.71149988    0.38989898    -0.12840000
opls_145-117    C    0.21189995    0.73159996    0.41609964    -0.11230000
opls_700-118    C    0.17870006    0.79150005    0.53249937    -0.00330000
opls_423-119    C    0.14400004    0.23140002    0.54960097    0.23850000
opls_700-120    C    0.50000015    0.47960001    0.50000000    -0.02500000
opls_145-121    C    0.50000015    0.39909999    0.50000000    -0.09490000
opls_700-122    C    0.00000015    0.97960001    0.50000000    -0.02500000
opls_145-123    C    0.00000015    0.89909999    0.50000000    -0.09500000
opls_700-124    C    0.50000015    0.52039999    0.50000000    -0.02500000
opls_145-125    C    0.50000015    0.60090001    0.50000000    -0.09500000
opls_700-126    C    0.00000015    0.02039999    0.50000000    -0.02500000
opls_145-127    C    0.00000015    0.10090001    0.50000000    -0.09500000
opls_144-128    H    0.70579998    0.34669988    0.54749865    0.10630000
opls_146-129    H    0.41080012    0.53529996    0.74409977    0.09130000
opls_146-130    H    0.53749993    0.64970009    0.13579877    0.11170000
opls_146-131    H    0.59940003    0.68860009    0.16539886    0.05230000
opls_146-132    H    0.67520011    0.60039988    0.83340020    0.09650000
opls_146-133    H    0.61289998    0.56239989    0.82019820    0.10330000
opls_146-134    H    0.74269997    0.81850001    0.29730079    0.10740000
opls_146-135    H    0.68180014    0.78220006    0.34600037    0.07860000
opls_144-136    H    0.20579998    0.84669988    0.54749865    0.10630000
opls_146-137    H    0.91080012    0.03529996    0.74409977    0.09130000
opls_146-138    H    0.03749993    0.14970009    0.13579877    0.11160000
opls_146-139    H    0.09940003    0.18860009    0.16539886    0.05240000
opls_146-140    H    0.17520011    0.10039988    0.83340020    0.09660000
opls_146-141    H    0.11289998    0.06239989    0.82019820    0.10330000
opls_146-142    H    0.24269997    0.31850001    0.29730079    0.10740000
opls_146-143    H    0.18180014    0.28220006    0.34600037    0.07860000
opls_144-144    H    0.29419993    0.34669988    0.45249860    0.10630000
opls_146-145    H    0.58919988    0.53529996    0.25590023    0.09130000
opls_146-146    H    0.46249998    0.64970009    0.86419848    0.11160000
opls_146-147    H    0.40059987    0.68860009    0.83459839    0.05230000
opls_146-148    H    0.32479989    0.60039988    0.16659980    0.09650000
opls_146-149    H    0.38709992    0.56239989    0.17979906    0.10330000
opls_146-150    H    0.25730003    0.81850001    0.70269921    0.10740000
opls_146-151    H    0.31820015    0.78220006    0.65399963    0.07860000
opls_144-152    H    0.79419993    0.84669988    0.45249860    0.10630000
opls_146-153    H    0.08919988    0.03529996    0.25590023    0.09130000
opls_146-154    H    0.96249998    0.14970009    0.86419848    0.11160000
opls_146-155    H    0.90059987    0.18860009    0.83459839    0.05230000
opls_146-156    H    0.82479989    0.10039988    0.16659980    0.09660000
opls_146-157    H    0.88709992    0.06239989    0.17979906    0.10330000
opls_146-158    H    0.75730003    0.31850001    0.70269921    0.10740000
opls_146-159    H    0.81820015    0.28220006    0.65399963    0.07860000
opls_144-160    H    0.29419993    0.65330012    0.45249860    0.10630000
opls_146-161    H    0.58919988    0.46470004    0.25590023    0.09130000
opls_146-162    H    0.46249998    0.35029991    0.86419848    0.11160000
opls_146-163    H    0.40059987    0.31139991    0.83459839    0.05230000
opls_146-164    H    0.32479989    0.39960012    0.16659980    0.09650000
opls_146-165    H    0.38709992    0.43760011    0.17979906    0.10330000
opls_146-166    H    0.25730003    0.18149999    0.70269921    0.10740000
opls_146-167    H    0.31820015    0.21779994    0.65399963    0.07860000
opls_144-168    H    0.79419993    0.15330012    0.45249860    0.10630000
opls_146-169    H    0.08919988    0.96470004    0.25590023    0.09140000
opls_146-170    H    0.96249998    0.85029991    0.86419848    0.11180000
opls_146-171    H    0.90059987    0.81139991    0.83459839    0.05230000
opls_146-172    H    0.82479989    0.89960012    0.16659980    0.09650000
opls_146-173    H    0.88709992    0.93760011    0.17979906    0.10340000
opls_146-174    H    0.75730003    0.68149999    0.70269921    0.10740000
opls_146-175    H    0.81820015    0.71779994    0.65399963    0.07870000
opls_144-176    H    0.70579998    0.65330012    0.54749865    0.10630000
opls_146-177    H    0.41080012    0.46470004    0.74409977    0.09130000
opls_146-178    H    0.53749993    0.35029991    0.13579877    0.11160000
opls_146-179    H    0.59940003    0.31139991    0.16539886    0.05230000
opls_146-180    H    0.67520011    0.39960012    0.83340020    0.09650000
opls_146-181    H    0.61289998    0.43760011    0.82019820    0.10330000
opls_146-182    H    0.74269997    0.18149999    0.29730079    0.10750000
opls_146-183    H    0.68180014    0.21779994    0.34600037    0.07860000
opls_144-184    H    0.20579998    0.15330012    0.54749865    0.10630000
opls_146-185    H    0.91080012    0.96470004    0.74409977    0.09130000
opls_146-186    H    0.03749993    0.85029991    0.13579877    0.11160000
opls_146-187    H    0.09940003    0.81139991    0.16539886    0.05230000
opls_146-188    H    0.17520011    0.89960012    0.83340020    0.09650000
opls_146-189    H    0.11289998    0.93760011    0.82019820    0.10330000
opls_146-190    H    0.24269997    0.68149999    0.29730079    0.10740000
opls_146-191    H    0.18180014    0.71779994    0.34600037    0.07870000
opls_146-192    H    0.50000015    0.63249997    0.50000000    0.09680000
opls_146-193    H    0.00000015    0.13249997    0.50000000    0.09680000
opls_146-194    H    0.50000015    0.36750003    0.50000000    0.09680000
opls_146-195    H    0.00000015    0.86750003    0.50000000    0.09680000
opls_753-196    N    0.61839987    0.24900002    0.58969892    -0.28790000
opls_753-197    N    0.11839987    0.74900002    0.58969892    -0.28800000
opls_753-198    N    0.38160013    0.24900002    0.41030108    -0.28790000
opls_753-199    N    0.88160013    0.74900002    0.41030108    -0.28790000
opls_753-200    N    0.38160013    0.75099998    0.41030108    -0.28800000
opls_753-201    N    0.88160013    0.25099998    0.41030108    -0.28790000
opls_753-202    N    0.61839987    0.75099998    0.58969892    -0.28790000
opls_753-203    N    0.11839987    0.25099998    0.58969892    -0.28800000
