#======================================================================
# Crystal Data Generated By AuToFF
#----------------------------------------------------------------------

data_AuToFF_phase_1

_cell_length_a                         22.6005
_cell_length_b                         22.6005
_cell_length_c                         3.4540
_cell_angle_alpha                      90.00
_cell_angle_beta                       90.00
_cell_angle_gamma                      120.00
_symmetry_space_group_name_H-M_alt     'P 1'
_symmetry_space_group_IT_number        1

loop_
_space_group_symop_operation_xyz
   'x, y, z'

loop_
   _atom_site_label
   _atom_site_type_symbol
   _atom_site_fract_x
   _atom_site_fract_y
   _atom_site_fract_z
   _atom_site_charge
opls_700-0    C    0.38006994    0.73795983    0.46352924    0.06900000
opls_700-1    C    0.18651983    0.61609004    0.46687898    0.06280000
opls_145-2    C    0.14001024    0.54974017    0.60268095    -0.12630000
opls_145-3    C    0.06989021    0.52517012    0.59967863    -0.11780000
opls_700-4    C    0.04408021    0.56684009    0.47363926    0.05360000
opls_145-5    C    0.08951985    0.63308011    0.34484076    -0.11770000
opls_145-6    C    0.15957976    0.65706975    0.33513897    -0.12930000
opls_142-7    C    0.97025017    0.54204013    0.47319050    0.01860000
opls_234-8    C    0.81336993    0.39096012    0.72656920    0.45670000
opls_700-9    C    0.73820989    0.36197983    0.73022872    -0.04480000
opls_145-10    C    0.70909983    0.40413006    0.73427041    -0.16950000
opls_145-11    C    0.30922022    0.71254013    0.46292125    -0.16400000
opls_700-12    C    0.26203997    0.64211007    0.46352924    0.06900000
opls_700-13    C    0.38391006    0.57042980    0.46687898    0.06280000
opls_145-14    C    0.45025977    0.59026977    0.60268095    -0.12630000
opls_145-15    C    0.47482980    0.54471989    0.59967863    -0.11780000
opls_700-16    C    0.43315988    0.47723988    0.47363926    0.05360000
opls_145-17    C    0.36691997    0.45643989    0.34484076    -0.11770000
opls_145-18    C    0.34292991    0.50250988    0.33513897    -0.12930000
opls_142-19    C    0.45795985    0.42821014    0.47319050    0.01860000
opls_234-20    C    0.60903985    0.42240968    0.72656920    0.45670000
opls_700-21    C    0.63802001    0.37622984    0.73022872    -0.04480000
opls_145-22    C    0.59586991    0.30497006    0.73427041    -0.16950000
opls_145-23    C    0.28746003    0.59667975    0.46292125    -0.16400000
opls_700-24    C    0.35789009    0.61993010    0.46352924    0.06900000
opls_700-25    C    0.42956985    0.81347965    0.46687898    0.06280000
opls_145-26    C    0.40972999    0.85999006    0.60268095    -0.12630000
opls_145-27    C    0.45527999    0.93010999    0.59967863    -0.11780000
opls_700-28    C    0.52275991    0.95592003    0.47363926    0.05360000
opls_145-29    C    0.54356017    0.91048000    0.34484076    -0.11770000
opls_145-30    C    0.49749007    0.84041985    0.33513897    -0.12930000
opls_142-31    C    0.57179024    0.02975025    0.47319050    0.01860000
opls_234-32    C    0.57759022    0.18663019    0.72656920    0.45670000
opls_700-33    C    0.62376985    0.26178982    0.73022872    -0.04480000
opls_145-34    C    0.69502982    0.29089989    0.73427041    -0.16950000
opls_145-35    C    0.40332020    0.69078013    0.46292125    -0.16400000
opls_750-36    N    0.92730012    0.48092002    0.59233932    -0.18240000
opls_238-37    N    0.85665987    0.45545995    0.59107991    -0.27350000
opls_750-38    N    0.51907987    0.44637992    0.59233932    -0.18240000
opls_238-39    N    0.54454015    0.40119994    0.59107991    -0.27350000
opls_750-40    N    0.55362000    0.07270006    0.59233932    -0.18240000
opls_238-41    N    0.59879998    0.14334011    0.59107991    -0.27350000
opls_236-42    O    0.83700996    0.35594997    0.84129126    -0.39660000
opls_236-43    O    0.64404984    0.48106001    0.84129126    -0.39660000
opls_236-44    O    0.51894020    0.16299002    0.84129126    -0.39660000
opls_146-45    H    0.15687993    0.51665005    0.72444991    0.12120000
opls_146-46    H    0.03601995    0.47393986    0.70535032    0.11430000
opls_146-47    H    0.07062012    0.66584988    0.24178923    0.11640000
opls_146-48    H    0.19163982    0.70713972    0.21165895    0.11740000
opls_144-49    H    0.95189984    0.57529987    0.36986972    0.11380000
opls_910-50    H    0.83776022    0.48509013    0.46973075    0.26190000
opls_146-51    H    0.74135992    0.45893011    0.74574986    0.11860000
opls_146-52    H    0.25215986    0.54277994    0.46253040    0.09670000
opls_146-53    H    0.48334983    0.64022989    0.72444991    0.12120000
opls_146-54    H    0.52605973    0.56207987    0.70535032    0.11430000
opls_146-55    H    0.33414965    0.40476973    0.24178923    0.11640000
opls_146-56    H    0.29285995    0.48450002    0.21165895    0.11740000
opls_144-57    H    0.42469995    0.37659975    0.36986972    0.11380000
opls_910-58    H    0.51490975    0.35266988    0.46973075    0.26190000
opls_146-59    H    0.54106981    0.28242989    0.74574986    0.11860000
opls_146-60    H    0.45722008    0.70938010    0.46253040    0.09670000
opls_146-61    H    0.35977024    0.84312005    0.72444991    0.12120000
opls_146-62    H    0.43792006    0.96397977    0.70535032    0.11700000
opls_146-63    H    0.59522997    0.92937988    0.24178923    0.11640000
opls_146-64    H    0.51549998    0.80835974    0.21165895    0.11740000
opls_144-65    H    0.62339995    0.04809987    0.36986972    0.11380000
opls_910-66    H    0.64733003    0.16223999    0.46973075    0.26190000
opls_146-67    H    0.71756982    0.25864001    0.74574986    0.11860000
opls_146-68    H    0.29062006    0.74783997    0.46253040    0.09670000
