#======================================================================
# Crystal Data Generated By AuToFF
#----------------------------------------------------------------------

data_AuToFF_phase_1

_cell_length_a                         22.7820
_cell_length_b                         22.7820
_cell_length_c                         3.4000
_cell_angle_alpha                      90.00
_cell_angle_beta                       90.00
_cell_angle_gamma                      120.00
_symmetry_space_group_name_H-M_alt     'P 1'
_symmetry_space_group_IT_number        1

loop_
_space_group_symop_operation_xyz
   'x, y, z'

loop_
   _atom_site_label
   _atom_site_type_symbol
   _atom_site_fract_x
   _atom_site_fract_y
   _atom_site_fract_z
   _atom_site_charge
opls_700-0    C    0.57091007    0.53545020    0.47059118    0.05930000
opls_145-1    C    0.53545988    0.46454017    0.47059118    -0.15260000
opls_700-2    C    0.46454028    0.42909022    0.47059118    0.05930000
opls_145-3    C    0.42908994    0.46454017    0.47059118    -0.15260000
opls_700-4    C    0.46454013    0.53545020    0.47059118    0.05960000
opls_145-5    C    0.53545972    0.57090978    0.47059118    -0.16810000
opls_700-6    C    0.09575999    0.79788026    0.47059118    0.05930000
opls_145-7    C    0.13121009    0.76242018    0.47059118    -0.16810000
opls_700-8    C    0.20212027    0.79788026    0.47059118    0.05960000
opls_145-9    C    0.23757986    0.86878978    0.47059118    -0.16810000
opls_700-10    C    0.20212012    0.90424024    0.47059118    0.05930000
opls_145-11    C    0.13120992    0.86878978    0.47059118    -0.16810000
opls_700-12    C    0.01566998    0.75783016    0.47059118    0.06110000
opls_145-13    C    0.97950019    0.68658004    0.47059118    -0.13790000
opls_145-14    C    0.90851979    0.75743989    0.47059118    -0.13790000
opls_145-15    C    0.97950024    0.79292025    0.47059118    -0.13790000
opls_145-16    C    0.90852018    0.65109005    0.47059118    -0.13790000
opls_700-17    C    0.87236011    0.68618014    0.47059118    0.05920000
opls_700-18    C    0.79430970    0.64714982    0.47059118    0.05920000
opls_145-19    C    0.75814016    0.57590020    0.47059118    -0.13790000
opls_145-20    C    0.68716986    0.64676005    0.47059118    -0.13790000
opls_145-21    C    0.75813997    0.68223990    0.47059118    -0.13790000
opls_145-22    C    0.68717025    0.54041021    0.47059118    -0.13790000
opls_700-23    C    0.65099983    0.57549979    0.47059118    0.06110000
opls_700-24    C    0.24217028    0.75783016    0.47059118    0.06110000
opls_145-25    C    0.20707985    0.68658004    0.47059118    -0.13790000
opls_145-26    C    0.34891001    0.75743989    0.47059118    -0.13790000
opls_145-27    C    0.31342001    0.79292025    0.47059118    -0.13790000
opls_145-28    C    0.24256021    0.65109005    0.47059118    -0.13790000
opls_700-29    C    0.31382003    0.68618014    0.47059118    0.05910000
opls_700-30    C    0.35284977    0.64714982    0.47059118    0.05920000
opls_145-31    C    0.31776004    0.57590020    0.47059118    -0.13790000
opls_145-32    C    0.45959019    0.64676005    0.47059118    -0.13780000
opls_145-33    C    0.42409994    0.68223990    0.47059118    -0.13780000
opls_145-34    C    0.35323996    0.54041021    0.47059118    -0.13790000
opls_700-35    C    0.42449996    0.57549979    0.47059118    0.06110000
opls_700-36    C    0.24216972    0.98432979    0.47057941    0.06110000
opls_145-37    C    0.31342003    0.02049996    0.47059118    -0.13790000
opls_145-38    C    0.24255983    0.09147994    0.47059118    -0.13790000
opls_145-39    C    0.20707994    0.02049996    0.47059118    -0.13790000
opls_145-40    C    0.34891002    0.09147994    0.47059118    -0.13790000
opls_700-41    C    0.31381999    0.12763998    0.47059118    0.05930000
opls_700-42    C    0.35284982    0.20568997    0.47059118    0.05930000
opls_145-43    C    0.42410012    0.24186015    0.47059118    -0.13790000
opls_145-44    C    0.35324012    0.31282999    0.47059118    -0.13790000
opls_145-45    C    0.31776003    0.24186015    0.47059118    -0.13790000
opls_145-46    C    0.45958987    0.31282999    0.47059118    -0.13780000
opls_700-47    C    0.42450008    0.34900017    0.47059118    0.06110000
opls_146-48    H    0.56288018    0.43712021    0.47059118    0.11310000
opls_146-49    H    0.37422993    0.43712021    0.47059118    0.11060000
opls_146-50    H    0.56288015    0.62576997    0.47059118    0.11050000
opls_146-51    H    0.10377999    0.70755999    0.47059118    0.11050000
opls_146-52    H    0.29244011    0.89621988    0.47059118    0.11050000
opls_146-53    H    0.10377977    0.89621988    0.47059118    0.11050000
opls_146-54    H    0.00629981    0.65839981    0.47059118    0.10600000
opls_146-55    H    0.00630013    0.84790005    0.47059118    0.10590000
opls_146-56    H    0.78493979    0.54771997    0.47059118    0.10590000
opls_146-57    H    0.78494010    0.73722021    0.47059118    0.10590000
opls_146-58    H    0.66037012    0.48542990    0.47059118    0.10590000
opls_146-59    H    0.88172030    0.59611025    0.47059118    0.10590000
opls_146-60    H    0.66037000    0.67493014    0.47059118    0.10600000
opls_146-61    H    0.88171992    0.78560998    0.47059118    0.10600000
opls_146-62    H    0.15210000    0.65839981    0.47059118    0.10590000
opls_146-63    H    0.34159993    0.84790005    0.47059118    0.10590000
opls_146-64    H    0.26278019    0.54771997    0.47059118    0.10590000
opls_146-65    H    0.45228011    0.73722021    0.47059118    0.10590000
opls_146-66    H    0.32506988    0.48542990    0.47059118    0.10590000
opls_146-67    H    0.21438995    0.59611025    0.47059118    0.10590000
opls_146-68    H    0.51457024    0.67493014    0.47059118    0.10590000
opls_146-69    H    0.40389006    0.78560998    0.47059118    0.10590000
opls_146-70    H    0.34159974    0.99369988    0.47057941    0.10590000
opls_146-71    H    0.15210014    0.99369988    0.47057941    0.10590000
opls_146-72    H    0.45227984    0.21506007    0.47059118    0.10590000
opls_146-73    H    0.26278023    0.21506007    0.47059118    0.10590000
opls_146-74    H    0.51457011    0.33963007    0.47059118    0.10590000
opls_146-75    H    0.40389001    0.11826989    0.47059118    0.10590000
opls_146-76    H    0.32507006    0.33963007    0.47059118    0.10600000
opls_146-77    H    0.21438997    0.11826989    0.47059118    0.10680000
