#======================================================================
# Crystal Data Generated By AuToFF
#----------------------------------------------------------------------

data_AuToFF_phase_1

_cell_length_a                         36.8758
_cell_length_b                         36.8758
_cell_length_c                         6.9793
_cell_angle_alpha                      90.00
_cell_angle_beta                       90.00
_cell_angle_gamma                      120.00
_symmetry_space_group_name_H-M_alt     'P 1'
_symmetry_space_group_IT_number        1

loop_
_space_group_symop_operation_xyz
   'x, y, z'

loop_
   _atom_site_label
   _atom_site_type_symbol
   _atom_site_fract_x
   _atom_site_fract_y
   _atom_site_fract_z
   _atom_site_charge
opls_145-0    C    0.66099999    0.59454999    0.07358045    -0.08030000
opls_700-1    C    0.66077003    0.55545010    0.13124955    0.08250000
opls_145-2    C    0.70172987    0.55686984    0.13413953    -0.06200000
opls_700-3    C    0.74198002    0.59478015    0.08413021    0.08250000
opls_145-4    C    0.74022992    0.63290996    0.02760019    -0.08030000
opls_145-5    C    0.70022984    0.63273993    0.02171994    -0.07660000
opls_142-6    C    0.62063012    0.51468998    0.18588970    0.04380000
opls_142-7    C    0.78303006    0.59349004    0.09222988    0.04400000
opls_145-8    C    0.54002007    0.47641988    0.21031049    0.22690000
opls_145-9    C    0.86362991    0.63597991    0.06742940    0.22670000
opls_145-10    C    0.50348007    0.48305015    0.23118937    -0.10420000
opls_523-11    C    0.46075003    0.44792985    0.24928001    -0.07890000
opls_700-12    C    0.45267997    0.40346005    0.24646025    -0.00770000
opls_523-13    C    0.48977010    0.39663001    0.23223962    -0.07920000
opls_145-14    C    0.53203989    0.43246988    0.21259009    -0.10370000
opls_145-15    C    0.87205001    0.60032008    0.07028069    -0.10420000
opls_523-16    C    0.91471006    0.60741003    0.07516943    -0.07920000
opls_700-17    C    0.95159001    0.65161993    0.07771983    -0.00770000
opls_523-18    C    0.94317008    0.68778014    0.07516943    -0.07920000
opls_145-19    C    0.90009010    0.67949998    0.06939951    -0.10370000
opls_531-20    C    0.40966998    0.36761986    0.24903930    0.38420000
opls_531-21    C    0.99470988    0.65917988    0.08144943    0.38420000
opls_145-22    C    0.33952006    0.03983012    0.18207986    -0.08040000
opls_700-23    C    0.29951997    0.04082995    0.18220022    0.08260000
opls_142-24    C    0.29753991    0.08148987    0.19720029    0.04370000
opls_145-25    C    0.33992015    0.16240013    0.22388062    0.22670000
opls_145-26    C    0.38327996    0.19907012    0.23129970    -0.10420000
opls_523-27    C    0.39127013    0.24206006    0.23840070    -0.07920000
opls_700-28    C    0.35496013    0.25030014    0.24019028    -0.00770000
opls_523-29    C    0.31088018    0.21316014    0.23608958    -0.07890000
opls_145-30    C    0.30410020    0.17060013    0.22731936    -0.10360000
opls_531-31    C    0.36228990    0.29337994    0.24468070    0.38430000
opls_145-32    C    0.40544994    0.06645013    0.74025045    -0.08030000
opls_700-33    C    0.44455001    0.10531987    0.79791956    0.08250000
opls_145-34    C    0.44313004    0.14486003    0.80080954    -0.06200000
opls_700-35    C    0.40521996    0.14720006    0.75080022    0.08250000
opls_145-36    C    0.36708987    0.10731984    0.69427020    -0.08030000
opls_145-37    C    0.36725995    0.06749004    0.68838995    -0.07660000
opls_142-38    C    0.48530984    0.10593987    0.85255971    0.04380000
opls_142-39    C    0.40650992    0.18953994    0.75889989    0.04400000
opls_145-40    C    0.52357997    0.06359999    0.87698050    0.22680000
opls_145-41    C    0.36401999    0.22765002    0.73409941    0.22670000
opls_145-42    C    0.51695004    0.02043001    0.89785938    -0.10420000
opls_523-43    C    0.55207000    0.01281995    0.91595002    -0.07890000
opls_700-44    C    0.59654011    0.04922002    0.91313026    -0.00770000
opls_523-45    C    0.60337010    0.09313996    0.89890963    -0.07920000
opls_145-46    C    0.56753004    0.09957013    0.87926010    -0.10370000
opls_145-47    C    0.39968001    0.27172997    0.73695070    -0.10420000
opls_523-48    C    0.39258987    0.30729993    0.74183944    -0.07920000
opls_700-49    C    0.34837995    0.29997013    0.74438984    -0.00770000
opls_523-50    C    0.31222013    0.25539010    0.74183944    -0.07920000
opls_145-51    C    0.32050014    0.22059014    0.73606952    -0.10360000
opls_531-52    C    0.63237983    0.04204991    0.91570931    0.38420000
opls_531-53    C    0.34081999    0.33553006    0.74811944    0.38420000
opls_145-54    C    0.96016987    0.29968987    0.84874987    -0.08040000
opls_700-55    C    0.95916993    0.25868989    0.84887023    0.08250000
opls_142-56    C    0.91850994    0.21605004    0.86387030    0.04370000
opls_145-57    C    0.83759991    0.17752004    0.89055063    0.22670000
opls_145-58    C    0.80093009    0.18421011    0.89796971    -0.10420000
opls_523-59    C    0.75793990    0.14921006    0.90507071    -0.07920000
opls_700-60    C    0.74970014    0.10466010    0.90686029    -0.00770000
opls_523-61    C    0.78683999    0.09772015    0.90275959    -0.07890000
opls_145-62    C    0.82939998    0.13349990    0.89398937    -0.10370000
opls_531-63    C    0.70661999    0.06891009    0.91135071    0.38430000
opls_145-64    C    0.93354980    0.33899988    0.40691044    -0.08030000
opls_700-65    C    0.89467996    0.33923003    0.46457954    0.08250000
opls_145-66    C    0.85514009    0.29827013    0.46746952    -0.06200000
opls_700-67    C    0.85280018    0.25802010    0.41746020    0.08250000
opls_145-68    C    0.89268005    0.25976989    0.36093018    -0.08030000
opls_145-69    C    0.93250994    0.29977004    0.35504993    -0.07660000
opls_142-70    C    0.89405988    0.37936984    0.51921969    0.04380000
opls_142-71    C    0.81046002    0.21697002    0.42555987    0.04400000
opls_145-72    C    0.93639996    0.45998012    0.54364048    0.22670000
opls_145-73    C    0.77235010    0.13637007    0.40075939    0.22670000
opls_145-74    C    0.97956989    0.49651985    0.56451936    -0.10420000
opls_523-75    C    0.98717982    0.53924989    0.58261000    -0.07890000
opls_700-76    C    0.95077992    0.54731993    0.57979024    -0.00770000
opls_523-77    C    0.90686006    0.51023003    0.56556961    -0.07920000
opls_145-78    C    0.90043008    0.46795999    0.54592008    -0.10370000
opls_145-79    C    0.72826998    0.12794994    0.40361068    -0.10420000
opls_523-80    C    0.69270007    0.08529005    0.40849942    -0.07920000
opls_700-81    C    0.70003004    0.04840995    0.41104982    -0.00770000
opls_523-82    C    0.74460994    0.05683007    0.40849942    -0.07920000
opls_145-83    C    0.77941003    0.09990988    0.40272950    -0.10370000
opls_531-84    C    0.95795003    0.59032991    0.58236929    0.38420000
opls_531-85    C    0.66447013    0.00529006    0.41477942    0.38420000
opls_145-86    C    0.70031008    0.66048001    0.51540985    -0.08030000
opls_700-87    C    0.74130995    0.70047984    0.51553021    0.08250000
opls_142-88    C    0.78395015    0.70246009    0.53053028    0.04370000
opls_145-89    C    0.82248010    0.66008014    0.55721061    0.22670000
opls_145-90    C    0.81579011    0.61672008    0.56462969    -0.10420000
opls_523-91    C    0.85078997    0.60872988    0.57173069    -0.07920000
opls_700-92    C    0.89534015    0.64504008    0.57352027    -0.00770000
opls_523-93    C    0.90227998    0.68912003    0.56941957    -0.07890000
opls_145-94    C    0.86650009    0.69589997    0.56064935    -0.10370000
opls_531-95    C    0.93109011    0.63770996    0.57801069    0.38430000
opls_145-96    C    0.59454992    0.66100012    0.92641955    -0.08030000
opls_700-97    C    0.55544993    0.66076997    0.86875045    0.08250000
opls_145-98    C    0.55686996    0.70172987    0.86586047    -0.06200000
opls_700-99    C    0.59478008    0.74197990    0.91586979    0.08250000
opls_145-100    C    0.63291017    0.74023011    0.97239981    -0.08030000
opls_145-101    C    0.63273990    0.70022996    0.97828006    -0.07660000
opls_142-102    C    0.51468988    0.62062985    0.81411030    0.04380000
opls_142-103    C    0.59349000    0.78302998    0.90777012    0.04400000
opls_145-104    C    0.47641983    0.54001988    0.78968951    0.22670000
opls_145-105    C    0.63598003    0.86362993    0.93257060    0.22670000
opls_145-106    C    0.48304988    0.50347984    0.76881063    -0.10420000
opls_523-107    C    0.44792993    0.46075011    0.75071999    -0.07890000
opls_700-108    C    0.40345999    0.45268007    0.75353975    -0.00770000
opls_523-109    C    0.39663003    0.48976997    0.76776038    -0.07920000
opls_145-110    C    0.43247009    0.53204001    0.78740991    -0.10370000
opls_145-111    C    0.60032004    0.87205006    0.92971931    -0.10420000
opls_523-112    C    0.60741003    0.91470995    0.92483057    -0.07920000
opls_700-113    C    0.65162009    0.95159005    0.92228017    -0.00770000
opls_523-114    C    0.68777987    0.94316993    0.92483057    -0.07920000
opls_145-115    C    0.67950015    0.90009012    0.93060049    -0.10370000
opls_531-116    C    0.36762012    0.40967009    0.75096070    0.38420000
opls_531-117    C    0.65918007    0.99470994    0.91855057    0.38420000
opls_145-118    C    0.03983007    0.33951999    0.81792014    -0.08040000
opls_700-119    C    0.04082995    0.29951984    0.81779978    0.08250000
opls_142-120    C    0.08149006    0.29753991    0.80279971    0.04370000
opls_145-121    C    0.16239996    0.33991986    0.77611938    0.22670000
opls_145-122    C    0.19907004    0.38327992    0.76870030    -0.10420000
opls_523-123    C    0.24206009    0.39127012    0.76159930    -0.07920000
opls_700-124    C    0.25030008    0.35495992    0.75980972    -0.00770000
opls_523-125    C    0.21315995    0.31087997    0.76391042    -0.07890000
opls_145-126    C    0.17060012    0.30410003    0.77268064    -0.10360000
opls_531-127    C    0.29338014    0.36229004    0.75531930    0.38430000
opls_145-128    C    0.06644999    0.40545001    0.25974955    -0.08030000
opls_700-129    C    0.10531993    0.44454990    0.20208044    0.08250000
opls_145-130    C    0.14485987    0.44312985    0.19919046    -0.06200000
opls_700-131    C    0.14719987    0.40521985    0.24919978    0.08250000
opls_145-132    C    0.10731996    0.36709004    0.30572980    -0.08030000
opls_145-133    C    0.06748991    0.36726007    0.31161005    -0.07660000
opls_142-134    C    0.10593988    0.48531002    0.14744029    0.04380000
opls_142-135    C    0.18954002    0.40650996    0.24110011    0.04400000
opls_145-136    C    0.06360019    0.52358012    0.12301950    0.22680000
opls_145-137    C    0.22765001    0.36402009    0.26590059    0.22670000
opls_145-138    C    0.02042992    0.51694985    0.10214062    -0.10410000
opls_523-139    C    0.01282017    0.55207015    0.08404998    -0.07890000
opls_700-140    C    0.04921992    0.59653995    0.08686974    -0.00770000
opls_523-141    C    0.09314010    0.60336999    0.10109037    -0.07920000
opls_145-142    C    0.09957000    0.56753012    0.12073990    -0.10370000
opls_145-143    C    0.27172992    0.39967992    0.26304930    -0.10420000
opls_523-144    C    0.30730004    0.39258997    0.25816056    -0.07920000
opls_700-145    C    0.29997009    0.34838007    0.25561016    -0.00770000
opls_523-146    C    0.25538995    0.31221986    0.25816056    -0.07910000
opls_145-147    C    0.22059013    0.32050002    0.26393048    -0.10370000
opls_531-148    C    0.04205012    0.63238014    0.08429069    0.38420000
opls_531-149    C    0.33553000    0.34082012    0.25188056    0.38430000
opls_145-150    C    0.29968994    0.96016988    0.15125013    -0.08030000
opls_700-151    C    0.25869002    0.95917005    0.15112977    0.08250000
opls_142-152    C    0.21605004    0.91851013    0.13612970    0.04370000
opls_145-153    C    0.17752001    0.83759987    0.10944937    0.22670000
opls_145-154    C    0.18420983    0.80092988    0.10203029    -0.10420000
opls_523-155    C    0.14921007    0.75793994    0.09492929    -0.07920000
opls_700-156    C    0.10466000    0.74969986    0.09313971    -0.00770000
opls_523-157    C    0.09772004    0.78683986    0.09724041    -0.07890000
opls_145-158    C    0.13350007    0.82939987    0.10601063    -0.10370000
opls_531-159    C    0.06890996    0.70662006    0.08864929    0.38430000
opls_145-160    C    0.33899981    0.93354987    0.59308956    -0.08030000
opls_700-161    C    0.33923014    0.89468013    0.53542046    0.08250000
opls_145-162    C    0.29827001    0.85513997    0.53253048    -0.06200000
opls_700-163    C    0.25801989    0.85279994    0.58253980    0.08250000
opls_145-164    C    0.25976987    0.89267984    0.63906982    -0.08030000
opls_145-165    C    0.29976992    0.93250996    0.64495007    -0.07660000
opls_142-166    C    0.37936997    0.89406013    0.48078031    0.04380000
opls_142-167    C    0.21696998    0.81046006    0.57444013    0.04400000
opls_145-168    C    0.45997998    0.93640001    0.45635952    0.22670000
opls_145-169    C    0.13636997    0.77234998    0.59924061    0.22670000
opls_145-170    C    0.49652004    0.97956999    0.43548064    -0.10410000
opls_523-171    C    0.53925005    0.98718005    0.41739000    -0.07890000
opls_700-172    C    0.54732009    0.95077998    0.42020976    -0.00770000
opls_523-173    C    0.51023014    0.90686004    0.43443039    -0.07920000
opls_145-174    C    0.46795990    0.90042987    0.45407992    -0.10360000
opls_145-175    C    0.12795003    0.72827003    0.59638932    -0.10420000
opls_523-176    C    0.08528994    0.69270007    0.59150058    -0.07920000
opls_700-177    C    0.04840982    0.70002987    0.58895018    -0.00770000
opls_523-178    C    0.05683003    0.74460990    0.59150058    -0.07920000
opls_145-179    C    0.09991000    0.77940986    0.59727050    -0.10370000
opls_531-180    C    0.59032992    0.95795009    0.41763071    0.38440000
opls_531-181    C    0.00528993    0.66446994    0.58522058    0.38420000
opls_145-182    C    0.66047999    0.70031013    0.48459015    -0.08040000
opls_700-183    C    0.70048003    0.74131011    0.48446979    0.08250000
opls_142-184    C    0.70245991    0.78394996    0.46946972    0.04370000
opls_145-185    C    0.66007987    0.82247996    0.44278939    0.22690000
opls_145-186    C    0.61671997    0.81578989    0.43537031    -0.10420000
opls_523-187    C    0.60872984    0.85078994    0.42826931    -0.07920000
opls_700-188    C    0.64504004    0.89533990    0.42647973    -0.00770000
opls_523-189    C    0.68911985    0.90227985    0.43058043    -0.07890000
opls_145-190    C    0.69590008    0.86650010    0.43935065    -0.10370000
opls_531-191    C    0.63770990    0.93108991    0.42198931    0.38430000
opls_145-192    C    0.26005999    0.00000000    0.16667001    -0.06200000
opls_145-193    C    0.33959995    0.00000000    0.16667001    -0.07660000
opls_145-194    C    0.99999993    0.26005985    0.83332999    -0.06200000
opls_145-195    C    0.99999994    0.33959984    0.83332999    -0.07660000
opls_145-196    C    0.73993993    0.73993984    0.50000000    -0.06200000
opls_145-197    C    0.66039995    0.66039984    0.50000000    -0.07660000
opls_750-198    N    0.82044007    0.62976987    0.06178986    -0.21190000
opls_750-199    N    0.58271002    0.51349005    0.18298970    -0.21150000
opls_520-200    N    0.40466016    0.32673010    0.24449014    -0.31040000
opls_520-201    N    0.02794995    0.70152007    0.08539968    -0.31080000
opls_520-202    N    0.37642000    0.37668003    0.25279039    -0.31100000
opls_750-203    N    0.21477987    0.88067999    0.12086026    -0.21130000
opls_750-204    N    0.37022993    0.19067003    0.72845987    -0.21170000
opls_750-205    N    0.48650994    0.06922009    0.84965971    -0.21160000
opls_520-206    N    0.67326982    0.07792987    0.91116015    -0.31060000
opls_520-207    N    0.29848019    0.32643012    0.75206969    -0.31080000
opls_520-208    N    0.62332012    0.99974010    0.91946040    -0.31100000
opls_750-209    N    0.11932005    0.33409999    0.78753027    -0.21140000
opls_750-210    N    0.80933000    0.17956010    0.39511985    -0.21200000
opls_750-211    N    0.93078004    0.41728985    0.51631969    -0.21160000
opls_520-212    N    0.92207003    0.59534003    0.57782013    -0.31060000
opls_520-213    N    0.67357001    0.97205012    0.41872967    -0.31080000
opls_520-214    N    0.00025988    0.62357987    0.58612038    -0.31090000
opls_750-215    N    0.66590009    0.78522003    0.45419025    -0.21140000
opls_750-216    N    0.62976990    0.82043990    0.93821014    -0.21200000
opls_750-217    N    0.51349019    0.58271015    0.81701030    -0.21160000
opls_520-218    N    0.32673000    0.40465997    0.75550986    -0.31060000
opls_520-219    N    0.70151989    0.02794988    0.91460032    -0.31080000
opls_520-220    N    0.37668001    0.37642013    0.74720961    -0.31100000
opls_750-221    N    0.88068006    0.21477997    0.87913974    -0.21140000
opls_750-222    N    0.19067020    0.37023013    0.27154013    -0.21190000
opls_750-223    N    0.06921997    0.48650995    0.15034029    -0.21140000
opls_520-224    N    0.07793005    0.67326990    0.08883985    -0.31060000
opls_520-225    N    0.32642988    0.29847993    0.24793031    -0.31070000
opls_520-226    N    0.99973997    0.62331997    0.08053960    -0.31090000
opls_750-227    N    0.33409988    0.11932001    0.21246973    -0.21140000
opls_750-228    N    0.17955990    0.80932997    0.60488015    -0.21180000
opls_750-229    N    0.41728984    0.93077991    0.48368031    -0.21160000
opls_520-230    N    0.59533995    0.92207013    0.42217987    -0.31060000
opls_520-231    N    0.97205007    0.67356988    0.58127033    -0.31070000
opls_520-232    N    0.62358002    0.00025990    0.41387962    -0.31100000
opls_750-233    N    0.78522006    0.66590001    0.54580975    -0.21140000
opls_146-234    H    0.63008005    0.59581004    0.06877051    0.04610000
opls_146-235    H    0.70237006    0.52675998    0.17901939    0.04610000
opls_146-236    H    0.77053008    0.66388000    0.98659035    0.04610000
opls_146-237    H    0.69986006    0.66300010    0.97649048    0.04610000
opls_144-238    H    0.62413983    0.48569987    0.22230023    0.03180000
opls_144-239    H    0.78061015    0.56148009    0.12911037    0.03180000
opls_146-240    H    0.50877995    0.51703001    0.23021936    0.04610000
opls_526-241    H    0.43302008    0.45460990    0.26050034    0.04610000
opls_526-242    H    0.48481017    0.36278009    0.22960039    0.04610000
opls_146-243    H    0.55964004    0.42583993    0.19589071    0.04610000
opls_146-244    H    0.84447993    0.56584985    0.06747955    0.04610000
opls_526-245    H    0.91994995    0.57869986    0.07687017    0.04610000
opls_526-246    H    0.97081995    0.72229984    0.07669967    0.04610000
opls_146-247    H    0.89418996    0.70776988    0.06693938    0.04610000
opls_146-248    H    0.37174010    0.07070998    0.19324001    0.04620000
opls_144-249    H    0.26442998    0.07832003    0.19290043    0.03180000
opls_146-250    H    0.41168003    0.19335013    0.22985973    0.04610000
opls_526-251    H    0.42573990    0.26974002    0.24228934    0.04610000
opls_526-252    H    0.28208009    0.21824008    0.23762985    0.04610000
opls_146-253    H    0.26973011    0.14289011    0.22251945    0.04610000
opls_146-254    H    0.40419000    0.03427014    0.73544052    0.04610000
opls_146-255    H    0.47323986    0.17560993    0.84568940    0.04610000
opls_146-256    H    0.33611998    0.10665005    0.65326036    0.04610000
opls_146-257    H    0.33699993    0.03686006    0.64316049    0.04610000
opls_144-258    H    0.51429991    0.13843987    0.88897024    0.03180000
opls_144-259    H    0.43852004    0.21913001    0.79578038    0.03180000
opls_146-260    H    0.48297001    0.99174990    0.89688937    0.04610000
opls_526-261    H    0.54539016    0.97841015    0.92717035    0.04610000
opls_526-262    H    0.63721992    0.12202986    0.89627040    0.04610000
opls_146-263    H    0.57415999    0.13379988    0.86256072    0.04610000
opls_146-264    H    0.43415002    0.27862985    0.73414956    0.04610000
opls_526-265    H    0.42129999    0.34125005    0.74354018    0.04610000
opls_526-266    H    0.27769992    0.24851998    0.74336968    0.04610000
opls_146-267    H    0.29222990    0.18641989    0.73360939    0.04620000
opls_146-268    H    0.92929001    0.30103008    0.85991002    0.04610000
opls_144-269    H    0.92167995    0.18610989    0.85957044    0.03180000
opls_146-270    H    0.80665005    0.21832995    0.89652974    0.04610000
opls_526-271    H    0.73026003    0.15600002    0.90895935    0.04610000
opls_526-272    H    0.78175993    0.06383985    0.90429986    0.04610000
opls_146-273    H    0.85710984    0.12683989    0.88918946    0.04610000
opls_146-274    H    0.96573011    0.36992013    0.40210050    0.04610000
opls_146-275    H    0.82439008    0.29763009    0.51234938    0.04610000
opls_146-276    H    0.89334995    0.22946995    0.31992034    0.04610000
opls_146-277    H    0.96314001    0.30013984    0.30982047    0.04610000
opls_144-278    H    0.86156010    0.37585994    0.55563022    0.03180000
opls_144-279    H    0.78087009    0.21938991    0.46244036    0.03180000
opls_146-280    H    0.00825004    0.49122008    0.56354935    0.04610000
opls_526-281    H    0.02159003    0.56697995    0.59383033    0.04610000
opls_526-282    H    0.87796990    0.51519005    0.56293038    0.04610000
opls_146-283    H    0.86619982    0.44035988    0.52922070    0.04610000
opls_146-284    H    0.72136990    0.15551999    0.40080954    0.04610000
opls_526-285    H    0.65875006    0.08005009    0.41020016    0.04610000
opls_526-286    H    0.75147998    0.02917986    0.41002966    0.04610000
opls_146-287    H    0.81357998    0.10580992    0.40026937    0.04610000
opls_146-288    H    0.69896989    0.62825994    0.52657000    0.04610000
opls_144-289    H    0.81389007    0.73557008    0.52623042    0.03180000
opls_146-290    H    0.78166992    0.58831991    0.56318972    0.04610000
opls_526-291    H    0.84400007    0.57425996    0.57561933    0.04610000
opls_526-292    H    0.93615998    0.71792006    0.57095984    0.04610000
opls_146-293    H    0.87316005    0.73027000    0.55584944    0.04610000
opls_146-294    H    0.59580998    0.63007987    0.93122949    0.04610000
opls_146-295    H    0.52675999    0.70236991    0.82098061    0.04610000
opls_146-296    H    0.66388000    0.77053005    0.01340965    0.04620000
opls_146-297    H    0.66300001    0.69985984    0.02350952    0.04610000
opls_144-298    H    0.48570016    0.62414006    0.77769977    0.03180000
opls_144-299    H    0.56148018    0.78061009    0.87088963    0.03180000
opls_146-300    H    0.51702996    0.50877992    0.76978064    0.04610000
opls_526-301    H    0.45461008    0.43302005    0.73949966    0.04610000
opls_526-302    H    0.36277986    0.48480995    0.77039961    0.04610000
opls_146-303    H    0.42583994    0.55964012    0.80410929    0.04610000
opls_146-304    H    0.56584991    0.84448001    0.93252045    0.04610000
opls_526-305    H    0.57869997    0.91994991    0.92312983    0.04610000
opls_526-306    H    0.72230012    0.97082014    0.92330033    0.04610000
opls_146-307    H    0.70777006    0.89419008    0.93306062    0.04610000
opls_146-308    H    0.07070995    0.37174006    0.80675999    0.04610000
opls_144-309    H    0.07831999    0.26442992    0.80709957    0.03180000
opls_146-310    H    0.19335001    0.41168009    0.77014027    0.04610000
opls_526-311    H    0.26974011    0.42574004    0.75771066    0.04610000
opls_526-312    H    0.21823992    0.28207994    0.76237015    0.04620000
opls_146-313    H    0.14289005    0.26973000    0.77748055    0.04610000
opls_146-314    H    0.03427001    0.40418996    0.26455948    0.04610000
opls_146-315    H    0.17561008    0.47324002    0.15431060    0.04610000
opls_146-316    H    0.10665008    0.33612000    0.34673964    0.04610000
opls_146-317    H    0.03685996    0.33699990    0.35683951    0.04610000
opls_144-318    H    0.13843996    0.51430013    0.11102976    0.03180000
opls_144-319    H    0.21913006    0.43851991    0.20421962    0.03180000
opls_146-320    H    0.99174994    0.48296999    0.10311063    0.04610000
opls_526-321    H    0.97841018    0.54539010    0.07282965    0.04610000
opls_526-322    H    0.12203008    0.63721991    0.10372960    0.04610000
opls_146-323    H    0.13380011    0.57416007    0.13743928    0.04610000
opls_146-324    H    0.27863008    0.43415015    0.26585044    0.04610000
opls_526-325    H    0.34125008    0.42130014    0.25645982    0.04610000
opls_526-326    H    0.24851995    0.27769984    0.25663032    0.04610000
opls_146-327    H    0.18642008    0.29223012    0.26639061    0.04610000
opls_146-328    H    0.30103012    0.92929002    0.14008998    0.04610000
opls_144-329    H    0.18610994    0.92167997    0.14042956    0.03190000
opls_146-330    H    0.21832990    0.80664987    0.10347026    0.04610000
opls_526-331    H    0.15599988    0.73025998    0.09104065    0.04610000
opls_526-332    H    0.06384000    0.78175992    0.09570014    0.04610000
opls_146-333    H    0.12684000    0.85710989    0.11081054    0.04610000
opls_146-334    H    0.36991985    0.96572986    0.59789950    0.04610000
opls_146-335    H    0.29762992    0.82439007    0.48765062    0.04610000
opls_146-336    H    0.22946992    0.89334995    0.68007966    0.04610000
opls_146-337    H    0.30013987    0.96313994    0.69017953    0.04610000
opls_144-338    H    0.37586003    0.86156013    0.44436978    0.03180000
opls_144-339    H    0.21939003    0.78086999    0.53755964    0.03180000
opls_146-340    H    0.49122011    0.00825010    0.43645065    0.04610000
opls_526-341    H    0.56698001    0.02158985    0.40616967    0.04610000
opls_526-342    H    0.51519006    0.87797014    0.43706962    0.04620000
opls_146-343    H    0.44036011    0.86620012    0.47077930    0.04610000
opls_146-344    H    0.15552002    0.72136984    0.59919046    0.04610000
opls_526-345    H    0.08004994    0.65874995    0.58979984    0.04610000
opls_526-346    H    0.02917994    0.75148002    0.58997034    0.04610000
opls_146-347    H    0.10581001    0.81358011    0.59973063    0.04610000
opls_146-348    H    0.62825993    0.69896992    0.47343000    0.04610000
opls_144-349    H    0.73557006    0.81389011    0.47376958    0.03180000
opls_146-350    H    0.58832010    0.78167005    0.43681028    0.04610000
opls_526-351    H    0.57426001    0.84399998    0.42438067    0.04610000
opls_526-352    H    0.71791992    0.93615983    0.42904016    0.04610000
opls_146-353    H    0.73026996    0.87316011    0.44415056    0.04610000
opls_146-354    H    0.22846013    0.00000000    0.16667001    0.04610000
opls_146-355    H    0.37124998    0.00000000    0.16667001    0.04610000
opls_146-356    H    0.00000012    0.22846010    0.83332999    0.04610000
opls_146-357    H    0.00000001    0.37125001    0.83332999    0.04610000
opls_146-358    H    0.77154002    0.77153990    0.50000000    0.04610000
opls_146-359    H    0.62875001    0.62874999    0.50000000    0.04610000
