#======================================================================
# Crystal Data Generated By AuToFF
#----------------------------------------------------------------------

data_AuToFF_phase_1

_cell_length_a                         26.2142
_cell_length_b                         26.2142
_cell_length_c                         3.4956
_cell_angle_alpha                      90.00
_cell_angle_beta                       90.00
_cell_angle_gamma                      120.00
_symmetry_space_group_name_H-M_alt     'P 1'
_symmetry_space_group_IT_number        1

loop_
_space_group_symop_operation_xyz
   'x, y, z'

loop_
   _atom_site_label
   _atom_site_type_symbol
   _atom_site_fract_x
   _atom_site_fract_y
   _atom_site_fract_z
   _atom_site_charge
opls_520-0    N    0.28141010    0.63294021    0.40121009    -0.37100000
opls_520-1    N    0.37460023    0.64120022    0.42659915    -0.37360000
opls_520-2    N    0.36613993    0.72601990    0.44957089    -0.37100000
opls_262-3    N    0.17972018    0.07898015    0.16359995    -0.25540000
opls_262-4    N    0.92109994    0.08896995    0.21906111    -0.25540000
opls_262-5    N    0.91823028    0.83043023    0.71933001    -0.25540000
opls_531-6    C    0.31513014    0.60702021    0.40379048    0.41760000
opls_531-7    C    0.40042997    0.70073024    0.44840943    0.41790000
opls_531-8    C    0.30660018    0.69242002    0.42502861    0.41820000
opls_700-9    C    0.26959022    0.72034027    0.42411889    -0.00180000
opls_700-10    C    0.28731007    0.54215986    0.38987870    -0.00150000
opls_700-11    C    0.46527010    0.73763025    0.46807129    -0.00210000
opls_523-12    C    0.22810988    0.50717993    0.28127932    -0.07680000
opls_145-13    C    0.20159015    0.44586022    0.27485124    -0.07690000
opls_700-14    C    0.23324011    0.41786993    0.38440039    0.08180000
opls_145-15    C    0.29259022    0.45318023    0.49309131    -0.07690000
opls_523-16    C    0.31940990    0.51451007    0.49213869    -0.07680000
opls_523-17    C    0.49188000    0.79699024    0.57812965    -0.07680000
opls_145-18    C    0.55314998    0.83169002    0.59834935    -0.07690000
opls_700-19    C    0.58938992    0.80817993    0.50211981    0.08270000
opls_145-20    C    0.56248001    0.74884020    0.38744994    -0.07700000
opls_523-21    C    0.50124019    0.71389022    0.37407026    -0.07680000
opls_523-22    C    0.20999018    0.68797022    0.31866918    -0.07680000
opls_145-23    C    0.17534008    0.71465006    0.31109967    -0.07690000
opls_700-24    C    0.19915020    0.77415012    0.41525918    0.08270000
opls_145-25    C    0.25867995    0.80614003    0.52645039    -0.07690000
opls_523-26    C    0.29356005    0.77973021    0.52754034    -0.07680000
opls_700-27    C    0.20433006    0.35235017    0.39089141    0.07810000
opls_700-28    C    0.65477995    0.84512002    0.52282012    0.08200000
opls_700-29    C    0.16239999    0.80285004    0.40345863    0.08200000
opls_145-30    C    0.68951988    0.81972993    0.61527063    -0.07690000
opls_145-31    C    0.75081995    0.85409010    0.62869894    -0.09590000
opls_700-32    C    0.77871002    0.91481031    0.55690869    0.11120000
opls_145-33    C    0.74447021    0.94069023    0.47421902    -0.09590000
opls_145-34    C    0.68319985    0.90613008    0.45125873    -0.07920000
opls_145-35    C    0.23704016    0.32395023    0.32280867    -0.07920000
opls_145-36    C    0.21021006    0.26264990    0.34215013    -0.09600000
opls_700-37    C    0.14985008    0.22838003    0.41600870    0.11580000
opls_145-38    C    0.11672002    0.25613994    0.47988900    -0.09590000
opls_145-39    C    0.14376994    0.31747023    0.47156997    -0.07690000
opls_145-40    C    0.18785003    0.86310994    0.31448106    -0.07690000
opls_145-41    C    0.15350023    0.89005011    0.30252031    -0.09590000
opls_700-42    C    0.09272990    0.85714003    0.37263989    0.11530000
opls_145-43    C    0.06686989    0.79701006    0.45466014    -0.09590000
opls_145-44    C    0.10142023    0.77027032    0.47612999    -0.07920000
opls_142-45    C    0.84328023    0.95204025    0.57487985    -0.08310000
opls_142-46    C    0.12266996    0.16399012    0.44630965    -0.08310000
opls_142-47    C    0.05528998    0.88414010    0.34396098    -0.08310000
opls_142-48    C    0.07077001    0.12735000    0.28305012    -0.08090000
opls_700-49    C    0.03873017    0.06189015    0.33331903    0.03660000
opls_142-50    C    0.07228015    0.93784028    0.48329900    -0.08140000
opls_700-51    C    0.03785000    0.96876024    0.43734123    0.03550000
opls_142-52    C    0.87901985    0.93475995    0.42282870    -0.08100000
opls_700-53    C    0.94476979    0.96997995    0.42998913    0.03770000
opls_700-54    C    0.97606000    0.93970001    0.48999027    -0.04680000
opls_700-55    C    0.97643990    0.03128997    0.35213125    -0.04250000
opls_700-56    C    0.06869989    0.02953992    0.35058931    -0.04620000
opls_261-57    C    0.13048010    0.05716989    0.24659000    0.27410000
opls_261-58    C    0.94546983    0.06317989    0.27810962    0.27410000
opls_261-59    C    0.94409009    0.87894015    0.61826010    0.27410000
opls_526-60    H    0.20128988    0.52879990    0.19743964    0.04880000
opls_146-61    H    0.15376983    0.41786993    0.18012072    0.04880000
opls_146-62    H    0.31931011    0.43173998    0.58323035    0.04880000
opls_526-63    H    0.36780024    0.54218013    0.57534043    0.04880000
opls_526-64    H    0.46344986    0.81724999    0.65189095    0.04880000
opls_146-65    H    0.57431003    0.87961013    0.69362055    0.04880000
opls_146-66    H    0.59076027    0.72880026    0.30415093    0.04880000
opls_526-67    H    0.48003981    0.66564988    0.28627989    0.04880000
opls_526-68    H    0.18950987    0.63949994    0.23831960    0.04880000
opls_146-69    H    0.12721010    0.68821028    0.21985067    0.04880000
opls_146-70    H    0.27892993    0.85419009    0.61700137    0.04880000
opls_526-71    H    0.34194024    0.80642018    0.61289049    0.04880000
opls_146-72    H    0.66762000    0.77062006    0.68014075    0.04880000
opls_146-73    H    0.77846992    0.83283000    0.69828928    0.04880000
opls_146-74    H    0.76655006    0.99024014    0.42516020    0.04880000
opls_146-75    H    0.65569003    0.92726992    0.37395869    0.04880000
opls_146-76    H    0.28592998    0.35103003    0.25106133    0.04880000
opls_146-77    H    0.23752991    0.24031986    0.29763131    0.04880000
opls_146-78    H    0.06744984    0.22860996    0.53898043    0.04880000
opls_146-79    H    0.11632018    0.33929018    0.53093889    0.04880000
opls_146-80    H    0.23700992    0.89042012    0.25125873    0.04880000
opls_146-81    H    0.17480004    0.93905998    0.23549891    0.04880000
opls_146-82    H    0.01734024    0.76955012    0.50441126    0.04880000
opls_146-83    H    0.07979001    0.72158993    0.55336995    0.04880000
opls_144-84    H    0.86402012    0.99688003    0.72122096    0.04880000
opls_144-85    H    0.14587008    0.14402022    0.61242133    0.04880000
opls_144-86    H    0.01035001    0.85917992    0.19965099    0.04880000
opls_144-87    H    0.04836984    0.14562006    0.09239902    0.04880000
opls_144-88    H    0.11540019    0.96275024    0.64850955    0.04880000
opls_144-89    H    0.85967002    0.89019018    0.27427051    0.04880000
