#======================================================================
# Crystal Data Generated By AuToFF
#----------------------------------------------------------------------

data_AuToFF_phase_1

_cell_length_a                         18.3600
_cell_length_b                         18.3600
_cell_length_c                         3.3600
_cell_angle_alpha                      90.00
_cell_angle_beta                       90.00
_cell_angle_gamma                      120.00
_symmetry_space_group_name_H-M_alt     'P 1'
_symmetry_space_group_IT_number        1

loop_
_space_group_symop_operation_xyz
   'x, y, z'

loop_
   _atom_site_label
   _atom_site_type_symbol
   _atom_site_fract_x
   _atom_site_fract_y
   _atom_site_fract_z
   _atom_site_charge
opls_531-0    C    0.36689983    0.61739987    0.50000000    0.39030000
opls_700-1    C    0.40377011    0.56182017    0.50000000    0.00200000
opls_145-2    C    0.38619994    0.42178006    0.50000000    -0.09710000
opls_523-3    C    0.49150014    0.59606999    0.50000000    -0.08460000
opls_523-4    C    0.35163999    0.47389000    0.50000000    -0.09710000
opls_700-5    C    0.52606009    0.54396006    0.50000000    0.10380000
opls_531-6    C    0.38260014    0.74949985    0.50000000    0.39030000
opls_700-7    C    0.43817984    0.84195008    0.50000000    0.00200000
opls_145-8    C    0.57821981    0.96442001    0.50000000    -0.09710000
opls_523-9    C    0.40393005    0.89542981    0.50000000    -0.08460000
opls_523-10    C    0.52610953    0.87774957    0.50000000    -0.09710000
opls_700-11    C    0.45604001    0.98209963    0.50000000    0.10380000
opls_531-12    C    0.25049971    0.63309965    0.50000000    0.39030000
opls_700-13    C    0.15805006    0.59622974    0.50000000    0.00200000
opls_145-14    C    0.03557970    0.61379993    0.50000000    -0.09710000
opls_523-15    C    0.10457036    0.50850019    0.50000000    -0.08460000
opls_523-16    C    0.12225016    0.64835980    0.50000000    -0.09710000
opls_700-17    C    0.01789958    0.47393969    0.50000000    0.10380000
opls_531-18    C    0.63310017    0.38260013    0.50000000    0.39030000
opls_700-19    C    0.59622989    0.43817983    0.50000000    0.00200000
opls_145-20    C    0.61380006    0.57821994    0.50000000    -0.09710000
opls_523-21    C    0.50849986    0.40393001    0.50000000    -0.08460000
opls_523-22    C    0.64836001    0.52611000    0.50000000    -0.09710000
opls_700-23    C    0.47393991    0.45603994    0.50000000    0.10380000
opls_531-24    C    0.61739986    0.25050015    0.50000000    0.39030000
opls_700-25    C    0.56182016    0.15804992    0.50000000    0.00200000
opls_145-26    C    0.42178019    0.03557999    0.50000000    -0.09710000
opls_523-27    C    0.59606995    0.10457019    0.50000000    -0.08460000
opls_523-28    C    0.47389015    0.12224980    0.50000000    -0.09710000
opls_700-29    C    0.54395967    0.01789974    0.50000000    0.10380000
opls_531-30    C    0.74949997    0.36689972    0.50000000    0.39030000
opls_700-31    C    0.84194963    0.40376963    0.50000000    0.00200000
opls_145-32    C    0.96442030    0.38620007    0.50000000    -0.09710000
opls_523-33    C    0.89542964    0.49149981    0.50000000    -0.08460000
opls_523-34    C    0.87774984    0.35164020    0.50000000    -0.09710000
opls_700-35    C    0.98210010    0.52605969    0.50000000    0.10380000
opls_520-36    N    0.28227978    0.58081990    0.50000000    -0.36070000
opls_520-37    N    0.41917972    0.70145966    0.50000000    -0.36070000
opls_520-38    N    0.29853964    0.71771981    0.50000000    -0.36070000
opls_520-39    N    0.71772022    0.41918010    0.50000000    -0.36070000
opls_520-40    N    0.58081996    0.29853971    0.50000000    -0.36070000
opls_520-41    N    0.70146036    0.28228019    0.50000000    -0.36070000
opls_146-42    H    0.34311983    0.35061002    0.50000000    0.04780000
opls_526-43    H    0.53459006    0.66724003    0.50000000    0.04780000
opls_526-44    H    0.28039977    0.44517972    0.50000000    0.04780000
opls_146-45    H    0.64938985    0.99250954    0.50000000    0.04780000
opls_526-46    H    0.33275983    0.86734972    0.50000000    0.04780000
opls_526-47    H    0.55482024    0.83521999    0.50000000    0.04780000
opls_146-48    H    0.00749001    0.65687981    0.50000000    0.04780000
opls_526-49    H    0.13264980    0.46540962    0.50000000    0.04780000
opls_526-50    H    0.16477967    0.71959965    0.50000000    0.04780000
opls_146-51    H    0.65688017    0.64938998    0.50000000    0.04780000
opls_526-52    H    0.46540994    0.33275997    0.50000000    0.04780000
opls_526-53    H    0.71959991    0.55481965    0.50000000    0.04780000
opls_146-54    H    0.35060984    0.00748983    0.50000000    0.04780000
opls_526-55    H    0.66724017    0.13265028    0.50000000    0.04780000
opls_526-56    H    0.44517976    0.16478001    0.50000000    0.04780000
opls_146-57    H    0.99250999    0.34312019    0.50000000    0.04780000
opls_526-58    H    0.86734989    0.53458975    0.50000000    0.04780000
opls_526-59    H    0.83522001    0.28039972    0.50000000    0.04780000
