#======================================================================
# Crystal Data Generated By AuToFF
#----------------------------------------------------------------------

data_AuToFF_phase_1

_cell_length_a                         39.0000
_cell_length_b                         39.0000
_cell_length_c                         3.5000
_cell_angle_alpha                      90.00
_cell_angle_beta                       90.00
_cell_angle_gamma                      90.00
_symmetry_space_group_name_H-M_alt     'P 1'
_symmetry_space_group_IT_number        1

loop_
_space_group_symop_operation_xyz
   'x, y, z'

loop_
   _atom_site_label
   _atom_site_type_symbol
   _atom_site_fract_x
   _atom_site_fract_y
   _atom_site_fract_z
   _atom_site_charge
opls_507-0    C    0.22010000    0.17760000    0.56930000    0.20860000
opls_700-1    C    0.25260000    0.16090000    0.57010000    -0.11980000
opls_543-2    C    0.28420000    0.17930000    0.57530000    0.20180000
opls_543-3    C    0.32250000    0.21960000    0.57910000    0.20180000
opls_716-4    C    0.34010000    0.18890000    0.58880000    -0.17620000
opls_716-5    C    0.31580000    0.16330000    0.58630000    -0.17620000
opls_700-6    C    0.33920000    0.25220000    0.57780000    -0.12070000
opls_507-7    C    0.32080000    0.28370000    0.57160000    0.20860000
opls_716-8    C    0.18750000    0.15920000    0.56030000    -0.14960000
opls_716-9    C    0.16300000    0.18250000    0.56390000    -0.15650000
opls_507-10    C    0.17980000    0.21600000    0.57480000    0.21280000
opls_716-11    C    0.33750000    0.31720000    0.55910000    -0.14940000
opls_716-12    C    0.31300000    0.34050000    0.55610000    -0.14960000
opls_507-13    C    0.28040000    0.32210000    0.56700000    0.20860000
opls_700-14    C    0.24790000    0.33880000    0.56830000    -0.12070000
opls_543-15    C    0.21630000    0.32040000    0.57530000    0.20200000
opls_543-16    C    0.17800000    0.28010000    0.58140000    0.20190000
opls_716-17    C    0.16050000    0.31080000    0.59160000    -0.17650000
opls_716-18    C    0.18480000    0.33640000    0.58750000    -0.17620000
opls_700-19    C    0.16140000    0.24750000    0.58160000    -0.12210000
opls_145-20    C    0.37810000    0.25350000    0.58530000    0.04880000
opls_145-21    C    0.25360000    0.12190000    0.56400000    0.07610000
opls_145-22    C    0.12297000    0.25070000    0.62424000    0.07630000
opls_145-23    C    0.24680000    0.37770000    0.56030000    0.07090000
opls_145-24    C    0.39460000    0.27320000    0.68440000    -0.18010000
opls_145-25    C    0.43060000    0.27470000    0.69280000    -0.18260000
opls_916-26    C    0.45150000    0.25660000    0.60270000    0.10250000
opls_145-27    C    0.23530000    0.10140000    0.65600000    -0.18090000
opls_145-28    C    0.23640000    0.06520000    0.64930000    -0.18090000
opls_916-29    C    0.25590000    0.04850000    0.55030000    0.10630000
opls_916-30    C    0.24400000    0.45110000    0.54260000    0.10400000
opls_145-31    C    0.26380000    0.43490000    0.64190000    -0.18060000
opls_145-32    C    0.26520000    0.39870000    0.65050000    -0.18060000
opls_145-33    C    0.07060000    0.26409000    0.38008857    -0.10120000
opls_145-34    C    0.10655000    0.26623000    0.43107143    -0.18090000
opls_145-35    C    0.43320000    0.22302000    0.42317143    -0.11080000
opls_145-36    C    0.39720000    0.22152000    0.41476857    -0.08630000
opls_145-37    C    0.21098000    0.39608000    0.36720000    -0.07520000
opls_145-38    C    0.20958000    0.43228000    0.35860000    -0.10690000
opls_145-39    C    0.10386000    0.22134000    0.88736000    -0.07920000
opls_145-40    C    0.06792000    0.21920000    0.83638000    -0.16220000
opls_916-41    C    0.05131000    0.23984000    0.59064000    0.13860000
opls_145-42    C    0.28966000    0.06757000    0.36527143    -0.10840000
opls_145-43    C    0.28856000    0.10377000    0.37197143    -0.07740000
opls_507-44    C    0.77990000    0.82240000    0.56930000    0.20860000
opls_700-45    C    0.74740000    0.83910000    0.57010000    -0.11980000
opls_543-46    C    0.71580000    0.82070000    0.57530000    0.20180000
opls_543-47    C    0.67750000    0.78040000    0.57910000    0.20180000
opls_716-48    C    0.65990000    0.81110000    0.58880000    -0.17620000
opls_716-49    C    0.68420000    0.83670000    0.58630000    -0.17620000
opls_700-50    C    0.66080000    0.74780000    0.57780000    -0.12070000
opls_507-51    C    0.67920000    0.71630000    0.57160000    0.20860000
opls_716-52    C    0.81250000    0.84080000    0.56030000    -0.14960000
opls_716-53    C    0.83700000    0.81750000    0.56390000    -0.15650000
opls_507-54    C    0.82020000    0.78400000    0.57480000    0.21280000
opls_716-55    C    0.66250000    0.68280000    0.55910000    -0.14940000
opls_716-56    C    0.68700000    0.65950000    0.55610000    -0.14960000
opls_507-57    C    0.71960000    0.67790000    0.56700000    0.20860000
opls_700-58    C    0.75210000    0.66120000    0.56830000    -0.12070000
opls_543-59    C    0.78370000    0.67960000    0.57530000    0.20200000
opls_543-60    C    0.82200000    0.71990000    0.58140000    0.20190000
opls_716-61    C    0.83950000    0.68920000    0.59160000    -0.17650000
opls_716-62    C    0.81520000    0.66360000    0.58750000    -0.17620000
opls_700-63    C    0.83860000    0.75250000    0.58160000    -0.12210000
opls_145-64    C    0.62190000    0.74650000    0.58530000    0.04880000
opls_145-65    C    0.74640000    0.87810000    0.56400000    0.07610000
opls_145-66    C    0.87703000    0.74930000    0.62424000    0.07630000
opls_145-67    C    0.75320000    0.62230000    0.56030000    0.07090000
opls_145-68    C    0.60540000    0.72680000    0.68440000    -0.18010000
opls_145-69    C    0.56940000    0.72530000    0.69280000    -0.18260000
opls_916-70    C    0.54850000    0.74340000    0.60270000    0.10250000
opls_145-71    C    0.76470000    0.89860000    0.65600000    -0.18090000
opls_145-72    C    0.76360000    0.93480000    0.64930000    -0.18090000
opls_916-73    C    0.74410000    0.95150000    0.55030000    0.10630000
opls_916-74    C    0.75600000    0.54890000    0.54260000    0.10400000
opls_145-75    C    0.73620000    0.56510000    0.64190000    -0.18060000
opls_145-76    C    0.73480000    0.60130000    0.65050000    -0.18060000
opls_145-77    C    0.92940000    0.73591000    0.38008857    -0.10120000
opls_145-78    C    0.89345000    0.73377000    0.43107143    -0.18090000
opls_145-79    C    0.56680000    0.77698000    0.42317143    -0.11080000
opls_145-80    C    0.60280000    0.77848000    0.41476857    -0.08630000
opls_145-81    C    0.78902000    0.60392000    0.36720000    -0.07520000
opls_145-82    C    0.79042000    0.56772000    0.35860000    -0.10690000
opls_145-83    C    0.89614000    0.77866000    0.88736000    -0.07920000
opls_145-84    C    0.93208000    0.78080000    0.83638000    -0.16220000
opls_916-85    C    0.94869000    0.76016000    0.59064000    0.13860000
opls_145-86    C    0.71034000    0.93243000    0.36527143    -0.10840000
opls_145-87    C    0.71144000    0.89623000    0.37197143    -0.07740000
opls_507-88    C    0.82240000    0.22010000    0.56930000    0.20860000
opls_700-89    C    0.83910000    0.25260000    0.57010000    -0.11980000
opls_543-90    C    0.82070000    0.28420000    0.57530000    0.20180000
opls_543-91    C    0.78040000    0.32250000    0.57910000    0.20180000
opls_716-92    C    0.81110000    0.34010000    0.58880000    -0.17620000
opls_716-93    C    0.83670000    0.31580000    0.58630000    -0.17620000
opls_700-94    C    0.74780000    0.33920000    0.57780000    -0.12070000
opls_507-95    C    0.71630000    0.32080000    0.57160000    0.20860000
opls_716-96    C    0.84080000    0.18750000    0.56030000    -0.14960000
opls_716-97    C    0.81750000    0.16300000    0.56390000    -0.15650000
opls_507-98    C    0.78400000    0.17980000    0.57480000    0.21280000
opls_716-99    C    0.68280000    0.33750000    0.55910000    -0.14940000
opls_716-100    C    0.65950000    0.31300000    0.55610000    -0.14960000
opls_507-101    C    0.67790000    0.28040000    0.56700000    0.20860000
opls_700-102    C    0.66120000    0.24790000    0.56830000    -0.12070000
opls_543-103    C    0.67960000    0.21630000    0.57530000    0.20200000
opls_543-104    C    0.71990000    0.17800000    0.58140000    0.20190000
opls_716-105    C    0.68920000    0.16050000    0.59160000    -0.17650000
opls_716-106    C    0.66360000    0.18480000    0.58750000    -0.17620000
opls_700-107    C    0.75250000    0.16140000    0.58160000    -0.12210000
opls_145-108    C    0.74650000    0.37810000    0.58530000    0.04880000
opls_145-109    C    0.87810000    0.25360000    0.56400000    0.07610000
opls_145-110    C    0.74930000    0.12297000    0.62424000    0.07630000
opls_145-111    C    0.62230000    0.24680000    0.56030000    0.07090000
opls_145-112    C    0.72680000    0.39460000    0.68440000    -0.18010000
opls_145-113    C    0.72530000    0.43060000    0.69280000    -0.18260000
opls_916-114    C    0.74340000    0.45150000    0.60270000    0.10250000
opls_145-115    C    0.89860000    0.23530000    0.65600000    -0.18090000
opls_145-116    C    0.93480000    0.23640000    0.64930000    -0.18090000
opls_916-117    C    0.95150000    0.25590000    0.55030000    0.10630000
opls_916-118    C    0.54890000    0.24400000    0.54260000    0.10400000
opls_145-119    C    0.56510000    0.26380000    0.64190000    -0.18060000
opls_145-120    C    0.60130000    0.26520000    0.65050000    -0.18060000
opls_145-121    C    0.73591000    0.07060000    0.38008857    -0.10120000
opls_145-122    C    0.73377000    0.10655000    0.43107143    -0.18090000
opls_145-123    C    0.77698000    0.43320000    0.42317143    -0.11080000
opls_145-124    C    0.77848000    0.39720000    0.41476857    -0.08630000
opls_145-125    C    0.60392000    0.21098000    0.36720000    -0.07520000
opls_145-126    C    0.56772000    0.20958000    0.35860000    -0.10690000
opls_145-127    C    0.77866000    0.10386000    0.88736000    -0.07920000
opls_145-128    C    0.78080000    0.06792000    0.83638000    -0.16220000
opls_916-129    C    0.76016000    0.05131000    0.59064000    0.13860000
opls_145-130    C    0.93243000    0.28966000    0.36527143    -0.10840000
opls_145-131    C    0.89623000    0.28856000    0.37197143    -0.07740000
opls_507-132    C    0.17760000    0.77990000    0.56930000    0.20860000
opls_700-133    C    0.16090000    0.74740000    0.57010000    -0.11980000
opls_543-134    C    0.17930000    0.71580000    0.57530000    0.20180000
opls_543-135    C    0.21960000    0.67750000    0.57910000    0.20180000
opls_716-136    C    0.18890000    0.65990000    0.58880000    -0.17620000
opls_716-137    C    0.16330000    0.68420000    0.58630000    -0.17620000
opls_700-138    C    0.25220000    0.66080000    0.57780000    -0.12070000
opls_507-139    C    0.28370000    0.67920000    0.57160000    0.20860000
opls_716-140    C    0.15920000    0.81250000    0.56030000    -0.14960000
opls_716-141    C    0.18250000    0.83700000    0.56390000    -0.15650000
opls_507-142    C    0.21600000    0.82020000    0.57480000    0.21280000
opls_716-143    C    0.31720000    0.66250000    0.55910000    -0.14940000
opls_716-144    C    0.34050000    0.68700000    0.55610000    -0.14960000
opls_507-145    C    0.32210000    0.71960000    0.56700000    0.20860000
opls_700-146    C    0.33880000    0.75210000    0.56830000    -0.12070000
opls_543-147    C    0.32040000    0.78370000    0.57530000    0.20200000
opls_543-148    C    0.28010000    0.82200000    0.58140000    0.20190000
opls_716-149    C    0.31080000    0.83950000    0.59160000    -0.17650000
opls_716-150    C    0.33640000    0.81520000    0.58750000    -0.17620000
opls_700-151    C    0.24750000    0.83860000    0.58160000    -0.12210000
opls_145-152    C    0.25350000    0.62190000    0.58530000    0.04880000
opls_145-153    C    0.12190000    0.74640000    0.56400000    0.07610000
opls_145-154    C    0.25070000    0.87703000    0.62424000    0.07630000
opls_145-155    C    0.37770000    0.75320000    0.56030000    0.07090000
opls_145-156    C    0.27320000    0.60540000    0.68440000    -0.18010000
opls_145-157    C    0.27470000    0.56940000    0.69280000    -0.18260000
opls_916-158    C    0.25660000    0.54850000    0.60270000    0.10250000
opls_145-159    C    0.10140000    0.76470000    0.65600000    -0.18090000
opls_145-160    C    0.06520000    0.76360000    0.64930000    -0.18090000
opls_916-161    C    0.04850000    0.74410000    0.55030000    0.10630000
opls_916-162    C    0.45110000    0.75600000    0.54260000    0.10400000
opls_145-163    C    0.43490000    0.73620000    0.64190000    -0.18060000
opls_145-164    C    0.39870000    0.73480000    0.65050000    -0.18060000
opls_145-165    C    0.26409000    0.92940000    0.38008857    -0.10120000
opls_145-166    C    0.26623000    0.89345000    0.43107143    -0.18090000
opls_145-167    C    0.22302000    0.56680000    0.42317143    -0.11080000
opls_145-168    C    0.22152000    0.60280000    0.41476857    -0.08630000
opls_145-169    C    0.39608000    0.78902000    0.36720000    -0.07520000
opls_145-170    C    0.43228000    0.79042000    0.35860000    -0.10690000
opls_145-171    C    0.22134000    0.89614000    0.88736000    -0.07920000
opls_145-172    C    0.21920000    0.93208000    0.83638000    -0.16220000
opls_916-173    C    0.23984000    0.94869000    0.59064000    0.13850000
opls_145-174    C    0.06757000    0.71034000    0.36527143    -0.10840000
opls_145-175    C    0.10377000    0.71144000    0.37197143    -0.07750000
opls_542-176    N    0.28810000    0.21390000    0.57160000    -0.21750000
opls_542-177    N    0.21440000    0.21200000    0.57700000    -0.26300000
opls_542-178    N    0.28610000    0.28770000    0.57520000    -0.26700000
opls_542-179    N    0.21240000    0.28580000    0.57220000    -0.21850000
opls_239-180    N    0.48850000    0.25890000    0.61510000    0.27540000
opls_239-181    N    0.24180000    0.48810000    0.53020000    0.27530000
opls_239-182    N    0.01169000    0.23670000    0.55057143    0.25470000
opls_239-183    N    0.98860000    0.25770000    0.54040000    0.25060000
opls_542-184    N    0.71190000    0.78610000    0.57160000    -0.21750000
opls_542-185    N    0.78560000    0.78800000    0.57700000    -0.26310000
opls_542-186    N    0.71390000    0.71230000    0.57520000    -0.26700000
opls_542-187    N    0.78760000    0.71420000    0.57220000    -0.21850000
opls_239-188    N    0.51150000    0.74110000    0.61510000    0.27540000
opls_239-189    N    0.75820000    0.51190000    0.53020000    0.27530000
opls_239-190    N    0.98831000    0.76330000    0.55057143    0.25470000
opls_239-191    N    0.01140000    0.74230000    0.54040000    0.25060000
opls_542-192    N    0.78610000    0.28810000    0.57160000    -0.21750000
opls_542-193    N    0.78800000    0.21440000    0.57700000    -0.26300000
opls_542-194    N    0.71230000    0.28610000    0.57520000    -0.26700000
opls_542-195    N    0.71420000    0.21240000    0.57220000    -0.21850000
opls_239-196    N    0.74110000    0.48850000    0.61510000    0.27540000
opls_239-197    N    0.51190000    0.24180000    0.53020000    0.27530000
opls_239-198    N    0.76330000    0.01169000    0.55057143    0.25470000
opls_239-199    N    0.74230000    0.98860000    0.54040000    0.25060000
opls_542-200    N    0.21390000    0.71190000    0.57160000    -0.21750000
opls_542-201    N    0.21200000    0.78560000    0.57700000    -0.26300000
opls_542-202    N    0.28770000    0.71390000    0.57520000    -0.26700000
opls_542-203    N    0.28580000    0.78760000    0.57220000    -0.21850000
opls_239-204    N    0.25890000    0.51150000    0.61510000    0.27540000
opls_239-205    N    0.48810000    0.75820000    0.53020000    0.27530000
opls_239-206    N    0.23670000    0.98831000    0.55057143    0.25460000
opls_239-207    N    0.25770000    0.01140000    0.54040000    0.25060000
opls_272-208    O    0.49190000    0.29670000    0.61570000    -0.20880000
opls_272-209    O    0.50370000    0.20480000    0.53500000    -0.20880000
opls_272-210    O    0.00580000    0.20260000    0.62920000    -0.20640000
opls_272-211    O    0.99370000    0.29520000    0.54760000    -0.20880000
opls_272-212    O    0.50810000    0.70330000    0.61570000    -0.20880000
opls_272-213    O    0.49630000    0.79520000    0.53500000    -0.20880000
opls_272-214    O    0.99420000    0.79740000    0.62920000    -0.20640000
opls_272-215    O    0.00630000    0.70480000    0.54760000    -0.20880000
opls_272-216    O    0.70330000    0.49190000    0.61570000    -0.20880000
opls_272-217    O    0.79520000    0.50370000    0.53500000    -0.20880000
opls_272-218    O    0.79740000    0.00580000    0.62920000    -0.20640000
opls_272-219    O    0.70480000    0.99370000    0.54760000    -0.20880000
opls_272-220    O    0.29670000    0.50810000    0.61570000    -0.20880000
opls_272-221    O    0.20480000    0.49630000    0.53500000    -0.20880000
opls_272-222    O    0.20260000    0.99420000    0.62920000    -0.20640000
opls_272-223    O    0.29520000    0.00630000    0.54760000    -0.20880000
opls_547-224    H    0.36590000    0.18358000    0.68036000    0.11440000
opls_547-225    H    0.32262000    0.13774000    0.67558857    0.12360000
opls_547-226    H    0.18234000    0.13384000    0.45086857    0.13740000
opls_547-227    H    0.13804000    0.17572000    0.45386000    0.13220000
opls_547-228    H    0.36270000    0.32379000    0.45412000    0.13070000
opls_547-229    H    0.31816000    0.36588000    0.44748000    0.13410000
opls_547-230    H    0.13462000    0.31605000    0.68058857    0.12090000
opls_547-231    H    0.17789000    0.36191000    0.67756857    0.11130000
opls_146-232    H    0.38335000    0.29781000    0.80744000    0.04630000
opls_146-233    H    0.44402000    0.29838000    0.81166000    0.04630000
opls_146-234    H    0.20953000    0.10867000    0.78668000    0.04630000
opls_146-235    H    0.21380000    0.04972000    0.76294000    0.04630000
opls_146-236    H    0.28833000    0.44645000    0.76352000    0.04630000
opls_146-237    H    0.29113000    0.39175000    0.77930857    0.04630000
opls_146-238    H    0.05719000    0.28190000    0.16947143    0.04630000
opls_146-239    H    0.11853000    0.28686000    0.24292000    0.04630000
opls_545-240    H    0.26927000    0.23180000    0.54641143    0.30200000
opls_545-241    H    0.23121000    0.26791000    0.54352000    0.29420000
opls_146-242    H    0.44898000    0.20057000    0.31112000    0.04630000
opls_146-243    H    0.38378000    0.19785000    0.29594000    0.04630000
opls_146-244    H    0.18843000    0.38037000    0.25620857    0.04630000
opls_146-245    H    0.18589000    0.44577000    0.24090857    0.04570000
opls_146-246    H    0.11727000    0.20353000    0.09798000    0.04630000
opls_146-247    H    0.05238000    0.19967000    0.00594857    0.04630000
opls_146-248    H    0.31314000    0.05384000    0.24622000    0.04630000
opls_146-249    H    0.31116000    0.11925000    0.25845143    0.04630000
opls_547-250    H    0.63410000    0.81642000    0.68036000    0.11440000
opls_547-251    H    0.67738000    0.86226000    0.67558857    0.12360000
opls_547-252    H    0.81766000    0.86616000    0.45086857    0.13740000
opls_547-253    H    0.86196000    0.82428000    0.45386000    0.13220000
opls_547-254    H    0.63730000    0.67621000    0.45412000    0.13070000
opls_547-255    H    0.68184000    0.63412000    0.44748000    0.13410000
opls_547-256    H    0.86538000    0.68395000    0.68058857    0.12090000
opls_547-257    H    0.82211000    0.63809000    0.67756857    0.11130000
opls_146-258    H    0.61665000    0.70219000    0.80744000    0.04630000
opls_146-259    H    0.55598000    0.70162000    0.81166000    0.04630000
opls_146-260    H    0.79047000    0.89133000    0.78668000    0.04630000
opls_146-261    H    0.78620000    0.95028000    0.76294000    0.04630000
opls_146-262    H    0.71167000    0.55355000    0.76352000    0.04630000
opls_146-263    H    0.70887000    0.60825000    0.77930857    0.04630000
opls_146-264    H    0.94281000    0.71810000    0.16947143    0.04630000
opls_146-265    H    0.88147000    0.71314000    0.24292000    0.04630000
opls_545-266    H    0.73073000    0.76820000    0.54641143    0.30200000
opls_545-267    H    0.76879000    0.73209000    0.54352000    0.29420000
opls_146-268    H    0.55102000    0.79943000    0.31112000    0.04630000
opls_146-269    H    0.61622000    0.80215000    0.29594000    0.04630000
opls_146-270    H    0.81157000    0.61963000    0.25620857    0.04630000
opls_146-271    H    0.81411000    0.55423000    0.24090857    0.04570000
opls_146-272    H    0.88273000    0.79647000    0.09798000    0.04630000
opls_146-273    H    0.94762000    0.80033000    0.00594857    0.04630000
opls_146-274    H    0.68686000    0.94616000    0.24622000    0.04630000
opls_146-275    H    0.68884000    0.88075000    0.25845143    0.04630000
opls_547-276    H    0.81642000    0.36590000    0.68036000    0.11440000
opls_547-277    H    0.86226000    0.32262000    0.67558857    0.12360000
opls_547-278    H    0.86616000    0.18234000    0.45086857    0.13740000
opls_547-279    H    0.82428000    0.13804000    0.45386000    0.13220000
opls_547-280    H    0.67621000    0.36270000    0.45412000    0.13070000
opls_547-281    H    0.63412000    0.31816000    0.44748000    0.13410000
opls_547-282    H    0.68395000    0.13462000    0.68058857    0.12090000
opls_547-283    H    0.63809000    0.17789000    0.67756857    0.11130000
opls_146-284    H    0.70219000    0.38335000    0.80744000    0.04630000
opls_146-285    H    0.70162000    0.44402000    0.81166000    0.04630000
opls_146-286    H    0.89133000    0.20953000    0.78668000    0.04630000
opls_146-287    H    0.95028000    0.21380000    0.76294000    0.04630000
opls_146-288    H    0.55355000    0.28833000    0.76352000    0.04630000
opls_146-289    H    0.60825000    0.29113000    0.77930857    0.04630000
opls_146-290    H    0.71810000    0.05719000    0.16947143    0.04630000
opls_146-291    H    0.71314000    0.11853000    0.24292000    0.04630000
opls_545-292    H    0.76820000    0.26927000    0.54641143    0.30200000
opls_545-293    H    0.73209000    0.23121000    0.54352000    0.29420000
opls_146-294    H    0.79943000    0.44898000    0.31112000    0.04630000
opls_146-295    H    0.80215000    0.38378000    0.29594000    0.04630000
opls_146-296    H    0.61963000    0.18843000    0.25620857    0.04630000
opls_146-297    H    0.55423000    0.18589000    0.24090857    0.04570000
opls_146-298    H    0.79647000    0.11727000    0.09798000    0.04630000
opls_146-299    H    0.80033000    0.05238000    0.00594857    0.04630000
opls_146-300    H    0.94616000    0.31314000    0.24622000    0.04630000
opls_146-301    H    0.88075000    0.31116000    0.25845143    0.04630000
opls_547-302    H    0.18358000    0.63410000    0.68036000    0.11440000
opls_547-303    H    0.13774000    0.67738000    0.67558857    0.12360000
opls_547-304    H    0.13384000    0.81766000    0.45086857    0.13740000
opls_547-305    H    0.17572000    0.86196000    0.45386000    0.13220000
opls_547-306    H    0.32379000    0.63730000    0.45412000    0.13070000
opls_547-307    H    0.36588000    0.68184000    0.44748000    0.13410000
opls_547-308    H    0.31605000    0.86538000    0.68058857    0.12090000
opls_547-309    H    0.36191000    0.82211000    0.67756857    0.11130000
opls_146-310    H    0.29781000    0.61665000    0.80744000    0.04630000
opls_146-311    H    0.29838000    0.55598000    0.81166000    0.04630000
opls_146-312    H    0.10867000    0.79047000    0.78668000    0.04630000
opls_146-313    H    0.04972000    0.78620000    0.76294000    0.04630000
opls_146-314    H    0.44645000    0.71167000    0.76352000    0.04630000
opls_146-315    H    0.39175000    0.70887000    0.77930857    0.04630000
opls_146-316    H    0.28190000    0.94281000    0.16947143    0.04630000
opls_146-317    H    0.28686000    0.88147000    0.24292000    0.04630000
opls_545-318    H    0.23180000    0.73073000    0.54641143    0.30200000
opls_545-319    H    0.26791000    0.76879000    0.54352000    0.29420000
opls_146-320    H    0.20057000    0.55102000    0.31112000    0.04630000
opls_146-321    H    0.19785000    0.61622000    0.29594000    0.04630000
opls_146-322    H    0.38037000    0.81157000    0.25620857    0.04630000
opls_146-323    H    0.44577000    0.81411000    0.24090857    0.04570000
opls_146-324    H    0.20353000    0.88273000    0.09798000    0.04630000
opls_146-325    H    0.19967000    0.94762000    0.00594857    0.04630000
opls_146-326    H    0.05384000    0.68686000    0.24622000    0.04630000
opls_146-327    H    0.11925000    0.68884000    0.25845143    0.04630000
