#======================================================================
# Crystal Data Generated By AuToFF
#----------------------------------------------------------------------

data_AuToFF_phase_1

_cell_length_a                         44.6500
_cell_length_b                         44.6500
_cell_length_c                         3.5100
_cell_angle_alpha                      90.00
_cell_angle_beta                       90.00
_cell_angle_gamma                      120.00
_symmetry_space_group_name_H-M_alt     'P 1'
_symmetry_space_group_IT_number        1

loop_
_space_group_symop_operation_xyz
   'x, y, z'

loop_
   _atom_site_label
   _atom_site_type_symbol
   _atom_site_fract_x
   _atom_site_fract_y
   _atom_site_fract_z
   _atom_site_charge
opls_700-0    C    0.68140994    0.36948999    0.00000000    0.08730000
opls_145-1    C    0.64549998    0.34791015    0.00000000    -0.07340000
opls_700-2    C    0.59255008    0.28944014    0.00000000    0.08830000
opls_145-3    C    0.73285995    0.42906996    0.00000000    -0.08260000
opls_145-4    C    0.74746001    0.46488016    0.00000000    -0.08370000
opls_700-5    C    0.72627002    0.47961999    0.00000000    0.07920000
opls_145-6    C    0.69047007    0.45830005    0.00000000    -0.09800000
opls_145-7    C    0.67586990    0.42246993    0.00000000    -0.08270000
opls_142-8    C    0.77619999    0.25910009    0.00000000    0.10960000
opls_522-9    C    0.78484998    0.21000992    0.00000000    0.26540000
opls_521-10    C    0.76816006    0.17395999    0.00000000    0.02830000
opls_521-11    C    0.82330014    0.17572010    0.00000000    0.19170000
opls_522-12    C    0.84004996    0.21184012    0.00000000    -0.10150000
opls_523-13    C    0.82123003    0.22901012    0.00000000    -0.14140000
opls_521-14    C    0.84342002    0.15767004    0.00000000    0.19990000
opls_521-15    C    0.84549001    0.10436994    0.00000000    -0.06510000
opls_522-16    C    0.88187006    0.12337013    0.00000000    0.26530000
opls_523-17    C    0.89855998    0.15942007    0.00000000    -0.09960000
opls_522-18    C    0.87956987    0.17638990    0.00000000    -0.09800000
opls_142-19    C    0.89050986    0.07426988    0.00000000    0.11000000
opls_700-20    C    0.91334999    0.05962988    0.00000000    0.07960000
opls_145-21    C    0.89885992    0.02383002    0.00000000    -0.06680000
opls_700-22    C    0.92008000    0.00923011    0.00000000    0.03840000
opls_700-23    C    0.95611998    0.03023997    0.00000000    -0.00010000
opls_700-24    C    0.97047991    0.06620999    0.00000000    0.03840000
opls_145-25    C    0.94928010    0.08082000    0.00000000    -0.06940000
opls_700-26    C    0.97860004    0.01474991    0.00000000    -0.00150000
opls_700-27    C    0.63051003    0.31191995    0.00000000    0.08730000
opls_145-28    C    0.65208997    0.29759002    0.00000000    -0.07340000
opls_700-29    C    0.71055997    0.30311009    0.00000000    0.08830000
opls_145-30    C    0.57092993    0.30378998    0.00000000    -0.08270000
opls_145-31    C    0.53511999    0.28257995    0.00000000    -0.08370000
opls_700-32    C    0.52038010    0.24665001    0.00000000    0.07920000
opls_145-33    C    0.54170005    0.23217009    0.00000000    -0.09800000
opls_145-34    C    0.57753003    0.25340003    0.00000000    -0.08270000
opls_142-35    C    0.74090008    0.51710004    0.00000000    0.10960000
opls_522-36    C    0.78998998    0.57483999    0.00000000    0.26540000
opls_521-37    C    0.82604006    0.59420017    0.00000000    0.02830000
opls_521-38    C    0.82428013    0.64758018    0.00000000    0.19170000
opls_522-39    C    0.78816018    0.62821018    0.00000000    -0.10150000
opls_523-40    C    0.77098995    0.59221998    0.00000000    -0.14140000
opls_521-41    C    0.84233007    0.68574996    0.00000000    0.19990000
opls_521-42    C    0.89563010    0.74111999    0.00000000    -0.06510000
opls_522-43    C    0.87663006    0.75849998    0.00000000    0.26540000
opls_523-44    C    0.84058011    0.73914006    0.00000000    -0.09960000
opls_522-45    C    0.82360999    0.70318012    0.00000000    -0.09800000
opls_142-46    C    0.92573017    0.81624019    0.00000000    0.11010000
opls_700-47    C    0.94036996    0.85371999    0.00000000    0.07960000
opls_145-48    C    0.97617014    0.87503010    0.00000000    -0.06680000
opls_700-49    C    0.99076997    0.91085013    0.00000000    0.03840000
opls_700-50    C    0.96975999    0.92588011    0.00000000    -0.00010000
opls_700-51    C    0.93379010    0.90427001    0.00000000    0.03840000
opls_145-52    C    0.91918009    0.86846007    0.00000000    -0.06940000
opls_700-53    C    0.98524996    0.96384998    0.00000000    -0.00150000
opls_700-54    C    0.68808002    0.31859006    0.00000000    0.08730000
opls_145-55    C    0.70240995    0.35450009    0.00000000    -0.07340000
opls_700-56    C    0.69689008    0.40745003    0.00000000    0.08830000
opls_145-57    C    0.69621012    0.26714006    0.00000000    -0.08270000
opls_145-58    C    0.71742013    0.25254015    0.00000000    -0.08370000
opls_700-59    C    0.75335011    0.27373000    0.00000000    0.07920000
opls_145-60    C    0.76783001    0.30953012    0.00000000    -0.09800000
opls_145-61    C    0.74660007    0.32413004    0.00000000    -0.08270000
opls_142-62    C    0.48290006    0.22380013    0.00000000    0.10960000
opls_522-63    C    0.42516004    0.21515009    0.00000000    0.26540000
opls_521-64    C    0.40580001    0.23184010    0.00000000    0.02830000
opls_521-65    C    0.35242009    0.17669998    0.00000000    0.19170000
opls_522-66    C    0.37178999    0.15994996    0.00000000    -0.10150000
opls_523-67    C    0.40778002    0.17876990    0.00000000    -0.14140000
opls_521-68    C    0.31424991    0.15658000    0.00000000    0.19990000
opls_521-69    C    0.25888012    0.15451007    0.00000000    -0.06510000
opls_522-70    C    0.24149988    0.11812989    0.00000000    0.26540000
opls_523-71    C    0.26086004    0.10144013    0.00000000    -0.09960000
opls_522-72    C    0.29681992    0.12042998    0.00000000    -0.09800000
opls_142-73    C    0.18375997    0.10948993    0.00000000    0.11010000
opls_700-74    C    0.14628005    0.08665013    0.00000000    0.07960000
opls_145-75    C    0.12496994    0.10113988    0.00000000    -0.06680000
opls_700-76    C    0.08914994    0.07992003    0.00000000    0.03840000
opls_700-77    C    0.07412003    0.04387992    0.00000000    -0.00010000
opls_700-78    C    0.09572999    0.02951999    0.00000000    0.03840000
opls_145-79    C    0.13154004    0.05071994    0.00000000    -0.06940000
opls_700-80    C    0.03615000    0.02140011    0.00000000    -0.00150000
opls_700-81    C    0.31859006    0.63051001    0.00000000    0.08730000
opls_145-82    C    0.35450015    0.65209011    0.00000000    -0.07340000
opls_700-83    C    0.40745005    0.71056012    0.00000000    0.08830000
opls_145-84    C    0.26714005    0.57093004    0.00000000    -0.08260000
opls_145-85    C    0.25254012    0.53512010    0.00000000    -0.08370000
opls_700-86    C    0.27372998    0.52038001    0.00000000    0.07920000
opls_145-87    C    0.30952993    0.54169995    0.00000000    -0.09800000
opls_145-88    C    0.32413010    0.57753007    0.00000000    -0.08270000
opls_142-89    C    0.22380014    0.74090017    0.00000000    0.10960000
opls_522-90    C    0.21515002    0.78999008    0.00000000    0.26540000
opls_521-91    C    0.23183994    0.82604001    0.00000000    0.02830000
opls_521-92    C    0.17669999    0.82428016    0.00000000    0.19170000
opls_522-93    C    0.15995017    0.78816014    0.00000000    -0.10150000
opls_523-94    C    0.17877010    0.77099014    0.00000000    -0.14140000
opls_521-95    C    0.15658011    0.84233021    0.00000000    0.19990000
opls_521-96    C    0.15450999    0.89563006    0.00000000    -0.06510000
opls_522-97    C    0.11813007    0.87663013    0.00000000    0.26540000
opls_523-98    C    0.10144015    0.84058019    0.00000000    -0.09960000
opls_522-99    C    0.12043013    0.82361010    0.00000000    -0.09810000
opls_142-100    C    0.10949014    0.92573012    0.00000000    0.11010000
opls_700-101    C    0.08665001    0.94037012    0.00000000    0.07920000
opls_145-102    C    0.10114021    0.97617024    0.00000000    -0.06680000
opls_700-103    C    0.07992013    0.99077015    0.00000000    0.03840000
opls_700-104    C    0.04388002    0.96976003    0.00000000    -0.00010000
opls_700-105    C    0.02952009    0.93379001    0.00000000    0.03840000
opls_145-106    C    0.05071990    0.91918000    0.00000000    -0.06940000
opls_700-107    C    0.02139996    0.98525009    0.00000000    -0.00150000
opls_700-108    C    0.36948997    0.68808005    0.00000000    0.08730000
opls_145-109    C    0.34791003    0.70240998    0.00000000    -0.07340000
opls_700-110    C    0.28944016    0.69689017    0.00000000    0.08830000
opls_145-111    C    0.42907007    0.69621002    0.00000000    -0.08270000
opls_145-112    C    0.46488001    0.71742005    0.00000000    -0.08370000
opls_700-113    C    0.47961990    0.75334999    0.00000000    0.07920000
opls_145-114    C    0.45830008    0.76783017    0.00000000    -0.09800000
opls_145-115    C    0.42246997    0.74659997    0.00000000    -0.08280000
opls_142-116    C    0.25909992    0.48289996    0.00000000    0.10960000
opls_522-117    C    0.21001002    0.42516001    0.00000000    0.26530000
opls_521-118    C    0.17396007    0.40580009    0.00000000    0.02830000
opls_521-119    C    0.17572000    0.35242007    0.00000000    0.19170000
opls_522-120    C    0.21183995    0.37179008    0.00000000    -0.10150000
opls_523-121    C    0.22901005    0.40778002    0.00000000    -0.14140000
opls_521-122    C    0.15766993    0.31425004    0.00000000    0.19990000
opls_521-123    C    0.10436990    0.25888001    0.00000000    -0.06510000
opls_522-124    C    0.12336994    0.24150002    0.00000000    0.26540000
opls_523-125    C    0.15941989    0.26085994    0.00000000    -0.09960000
opls_522-126    C    0.17639014    0.29682014    0.00000000    -0.09800000
opls_142-127    C    0.07426996    0.18376007    0.00000000    0.11010000
opls_700-128    C    0.05963004    0.14628001    0.00000000    0.07960000
opls_145-129    C    0.02382986    0.12496990    0.00000000    -0.06680000
opls_700-130    C    0.00923016    0.08915013    0.00000000    0.03840000
opls_700-131    C    0.03024001    0.07411989    0.00000000    -0.00010000
opls_700-132    C    0.06620990    0.09572999    0.00000000    0.03840000
opls_145-133    C    0.08081991    0.13153993    0.00000000    -0.06940000
opls_700-134    C    0.01475004    0.03615002    0.00000000    -0.00150000
opls_700-135    C    0.31192010    0.68141020    0.00000000    0.08730000
opls_145-136    C    0.29759018    0.64550017    0.00000000    -0.07340000
opls_700-137    C    0.30310992    0.59254997    0.00000000    0.08830000
opls_145-138    C    0.30379001    0.73286019    0.00000000    -0.08270000
opls_145-139    C    0.28258000    0.74746011    0.00000000    -0.08370000
opls_700-140    C    0.24664989    0.72627000    0.00000000    0.07920000
opls_145-141    C    0.23217012    0.69047014    0.00000000    -0.09800000
opls_145-142    C    0.25339993    0.67586996    0.00000000    -0.08270000
opls_142-143    C    0.51710007    0.77620013    0.00000000    0.10960000
opls_522-144    C    0.57484009    0.78485017    0.00000000    0.26530000
opls_521-145    C    0.59420012    0.76816016    0.00000000    0.02830000
opls_521-146    C    0.64757991    0.82330002    0.00000000    0.19160000
opls_522-147    C    0.62821001    0.84005004    0.00000000    -0.10160000
opls_523-148    C    0.59221998    0.82123010    0.00000000    -0.14140000
opls_521-149    C    0.68575009    0.84342000    0.00000000    0.19990000
opls_521-150    C    0.74112001    0.84549019    0.00000000    -0.06510000
opls_522-151    C    0.75850012    0.88187011    0.00000000    0.26530000
opls_523-152    C    0.73914009    0.89856013    0.00000000    -0.09960000
opls_522-153    C    0.70318008    0.87957002    0.00000000    -0.09800000
opls_142-154    C    0.81624003    0.89051007    0.00000000    0.11010000
opls_700-155    C    0.85372008    0.91335012    0.00000000    0.07960000
opls_145-156    C    0.87503006    0.89886012    0.00000000    -0.06680000
opls_700-157    C    0.91085006    0.92007997    0.00000000    0.03840000
opls_700-158    C    0.92587997    0.95612008    0.00000000    -0.00010000
opls_700-159    C    0.90427001    0.97048001    0.00000000    0.03840000
opls_145-160    C    0.86845996    0.94928006    0.00000000    -0.06940000
opls_700-161    C    0.96385013    0.97860015    0.00000000    -0.00150000
opls_750-162    N    0.76400990    0.22606996    0.00000000    -0.21730000
opls_520-163    N    0.78715990    0.15698990    0.00000000    -0.17460000
opls_520-164    N    0.82666997    0.12155002    0.00000000    -0.15400000
opls_750-165    N    0.90270006    0.10731010    0.00000000    -0.21720000
opls_750-166    N    0.77392991    0.53794000    0.00000000    -0.21720000
opls_520-167    N    0.84301007    0.63017019    0.00000000    -0.17480000
opls_520-168    N    0.87845002    0.70511997    0.00000000    -0.15410000
opls_750-169    N    0.89269015    0.79539015    0.00000000    -0.21720000
opls_750-170    N    0.46205997    0.23599004    0.00000000    -0.21720000
opls_520-171    N    0.36983003    0.21283991    0.00000000    -0.17480000
opls_520-172    N    0.29488001    0.17333001    0.00000000    -0.15400000
opls_750-173    N    0.20460992    0.09730002    0.00000000    -0.21720000
opls_750-174    N    0.23599010    0.77393004    0.00000000    -0.21720000
opls_520-175    N    0.21284010    0.84301010    0.00000000    -0.17460000
opls_520-176    N    0.17333003    0.87844998    0.00000000    -0.15400000
opls_750-177    N    0.09730006    0.89269016    0.00000000    -0.21720000
opls_750-178    N    0.22607009    0.46206000    0.00000000    -0.21730000
opls_520-179    N    0.15699006    0.36983006    0.00000000    -0.17480000
opls_520-180    N    0.12154998    0.29488003    0.00000000    -0.15400000
opls_750-181    N    0.10730998    0.20461011    0.00000000    -0.21720000
opls_750-182    N    0.53794003    0.76400996    0.00000000    -0.21720000
opls_520-183    N    0.63016997    0.78716009    0.00000000    -0.17480000
opls_520-184    N    0.70511999    0.82666999    0.00000000    -0.15400000
opls_750-185    N    0.79539008    0.90269998    0.00000000    -0.21720000
MOF2_H_-186    H    0.82900995    0.07108999    0.00000000    -0.09650000
MOF2_H_-187    H    0.83770013    0.26230015    0.00000000    -0.09400000
opls_526-188    H    0.82475999    0.75278001    0.00000000    0.05260000
MOF2_H_-189    H    0.92891014    0.75792017    0.00000000    -0.09650000
MOF2_H_-190    H    0.73770007    0.57540014    0.00000000    -0.09400000
opls_526-191    H    0.24722006    0.07198996    0.00000000    0.05330000
MOF2_H_-192    H    0.24208004    0.17099009    0.00000000    -0.09660000
MOF2_H_-193    H    0.42459993    0.16229997    0.00000000    -0.09400000
opls_526-194    H    0.92800998    0.17524011    0.00000000    0.05330000
MOF2_H_-195    H    0.17099005    0.92891001    0.00000000    -0.09650000
MOF2_H_-196    H    0.16230000    0.73770011    0.00000000    -0.09400000
opls_526-197    H    0.17524001    0.24721999    0.00000000    0.05260000
MOF2_H_-198    H    0.07108999    0.24208009    0.00000000    -0.09650000
MOF2_H_-199    H    0.26230006    0.42460012    0.00000000    -0.09400000
opls_526-200    H    0.75277994    0.92801004    0.00000000    0.05330000
MOF2_H_-201    H    0.75792009    0.82901017    0.00000000    -0.09650000
MOF2_H_-202    H    0.57540007    0.83770003    0.00000000    -0.09400000
opls_526-203    H    0.07199015    0.82476014    0.00000000    0.05330000
opls_146-204    H    0.62789997    0.35960017    0.00000000    0.05260000
opls_146-205    H    0.75022004    0.41712003    0.00000000    0.05330000
opls_146-206    H    0.77678001    0.48223998    0.00000000    0.05330000
opls_146-207    H    0.67301998    0.47015015    0.00000000    0.05330000
opls_146-208    H    0.64656009    0.40510003    0.00000000    0.05330000
opls_144-209    H    0.80534991    0.27748996    0.00000000    0.03140000
opls_524-210    H    0.73871006    0.15813994    0.00000000    0.03140000
opls_525-211    H    0.86951003    0.22763999    0.00000000    0.05330000
opls_144-212    H    0.83531007    0.25847994    0.00000000    -0.09400000
opls_144-213    H    0.83143013    0.07490012    0.00000000    -0.09650000
opls_525-214    H    0.89378005    0.20587007    0.00000000    0.05330000
opls_144-215    H    0.86136005    0.05586993    0.00000000    0.03140000
opls_146-216    H    0.86956008    0.00639003    0.00000000    0.05330000
opls_146-217    H    0.96124003    0.11014008    0.00000000    0.05330000
opls_146-218    H    0.64040003    0.26831002    0.00000000    0.05330000
opls_146-219    H    0.58288000    0.33311007    0.00000000    0.05330000
opls_146-220    H    0.51776003    0.29453013    0.00000000    0.05330000
opls_146-221    H    0.52984996    0.20286992    0.00000000    0.05330000
opls_146-222    H    0.59489997    0.24145011    0.00000000    0.05330000
opls_144-223    H    0.72251011    0.52786010    0.00000000    0.03140000
opls_524-224    H    0.84186005    0.58055996    0.00000000    0.03140000
opls_525-225    H    0.77236010    0.64187004    0.00000000    0.05330000
opls_144-226    H    0.74152004    0.57683001    0.00000000    -0.09400000
opls_144-227    H    0.92510001    0.75653014    0.00000000    -0.09650000
opls_525-228    H    0.79412997    0.68791997    0.00000000    0.05330000
opls_144-229    H    0.94412998    0.80548996    0.00000000    0.03140000
opls_146-230    H    0.99361017    0.86317017    0.00000000    0.05330000
opls_146-231    H    0.88985996    0.85109999    0.00000000    0.05330000
opls_146-232    H    0.73169017    0.37210016    0.00000000    0.05330000
opls_146-233    H    0.66688999    0.24977999    0.00000000    0.05330000
opls_146-234    H    0.70547005    0.22322006    0.00000000    0.05330000
opls_146-235    H    0.79713006    0.32697994    0.00000000    0.05320000
opls_146-236    H    0.75855003    0.35344004    0.00000000    0.05330000
opls_144-237    H    0.47213998    0.19464995    0.00000000    0.03140000
opls_524-238    H    0.41944008    0.26129001    0.00000000    0.03140000
opls_525-239    H    0.35813009    0.13048997    0.00000000    0.05330000
opls_144-240    H    0.42317011    0.16469006    0.00000000    -0.09400000
opls_144-241    H    0.24347000    0.16857000    0.00000000    -0.09650000
opls_525-242    H    0.31208001    0.10622005    0.00000000    0.05330000
opls_144-243    H    0.19450998    0.13864011    0.00000000    0.03140000
opls_146-244    H    0.13683011    0.13044006    0.00000000    0.05330000
opls_146-245    H    0.14890001    0.03875993    0.00000000    0.05330000
opls_146-246    H    0.37209993    0.64040009    0.00000000    0.05260000
opls_146-247    H    0.24977996    0.58287997    0.00000000    0.05330000
opls_146-248    H    0.22321999    0.51776002    0.00000000    0.05330000
opls_146-249    H    0.32698015    0.52985011    0.00000000    0.05330000
opls_146-250    H    0.35343991    0.59489997    0.00000000    0.05330000
opls_144-251    H    0.19465009    0.72251004    0.00000000    0.03140000
opls_524-252    H    0.26128994    0.84186006    0.00000000    0.03130000
opls_525-253    H    0.13048997    0.77236001    0.00000000    0.05330000
opls_144-254    H    0.16468993    0.74152006    0.00000000    -0.09400000
opls_144-255    H    0.16857000    0.92510014    0.00000000    -0.09650000
opls_525-256    H    0.10622008    0.79413019    0.00000000    0.05330000
opls_144-257    H    0.13863995    0.94413007    0.00000000    0.03140000
opls_146-258    H    0.13044005    0.99361023    0.00000000    0.05330000
opls_146-259    H    0.03876010    0.88986018    0.00000000    0.05330000
opls_146-260    H    0.35959997    0.73168998    0.00000000    0.05330000
opls_146-261    H    0.41712012    0.66689019    0.00000000    0.05330000
opls_146-262    H    0.48224010    0.70547013    0.00000000    0.05330000
opls_146-263    H    0.47015004    0.79713008    0.00000000    0.05330000
opls_146-264    H    0.40510016    0.75855015    0.00000000    0.05330000
opls_144-265    H    0.27749001    0.47214016    0.00000000    0.03140000
opls_524-266    H    0.15813995    0.41944004    0.00000000    0.03140000
opls_525-267    H    0.22763990    0.35812996    0.00000000    0.05330000
opls_144-268    H    0.25847996    0.42316999    0.00000000    -0.09400000
opls_144-269    H    0.07490012    0.24347012    0.00000000    -0.09660000
opls_525-270    H    0.20587003    0.31208003    0.00000000    0.05330000
opls_144-271    H    0.05587002    0.19451004    0.00000000    0.03140000
opls_146-272    H    0.00638996    0.13683009    0.00000000    0.05330000
opls_146-273    H    0.11014004    0.14890001    0.00000000    0.05330000
opls_146-274    H    0.26830996    0.62790010    0.00000000    0.05330000
opls_146-275    H    0.33311001    0.75022001    0.00000000    0.05330000
opls_146-276    H    0.29453008    0.77678020    0.00000000    0.05330000
opls_146-277    H    0.20286994    0.67302006    0.00000000    0.05330000
opls_146-278    H    0.24144997    0.64655996    0.00000000    0.05330000
opls_144-279    H    0.52786002    0.80535005    0.00000000    0.03140000
opls_524-280    H    0.58055992    0.73870999    0.00000000    0.03140000
opls_525-281    H    0.64186991    0.86951003    0.00000000    0.05330000
opls_144-282    H    0.57683002    0.83531020    0.00000000    -0.09400000
opls_144-283    H    0.75653000    0.83143000    0.00000000    -0.09650000
opls_525-284    H    0.68792012    0.89378021    0.00000000    0.05330000
opls_144-285    H    0.80549015    0.86136015    0.00000000    0.03140000
opls_146-286    H    0.86317002    0.86956020    0.00000000    0.05330000
opls_146-287    H    0.85109999    0.96124007    0.00000000    0.05330000
