#======================================================================
# Crystal Data Generated By AuToFF
#----------------------------------------------------------------------

data_AuToFF_phase_1

_cell_length_a                         28.8600
_cell_length_b                         28.8600
_cell_length_c                         4.4300
_cell_angle_alpha                      90.00
_cell_angle_beta                       90.00
_cell_angle_gamma                      120.00
_symmetry_space_group_name_H-M_alt     'P 1'
_symmetry_space_group_IT_number        1

loop_
_space_group_symop_operation_xyz
   'x, y, z'

loop_
   _atom_site_label
   _atom_site_type_symbol
   _atom_site_fract_x
   _atom_site_fract_y
   _atom_site_fract_z
   _atom_site_charge
opls_145-0    C    0.56521003    0.09100010    0.50000000    0.21240000
opls_142-1    C    0.49094984    0.99516994    0.50000000    0.04090000
opls_700-2    C    0.47320024    0.93485024    0.50000000    0.07710000
opls_145-3    C    0.61905992    0.44355990    0.50000000    -0.08750000
opls_145-4    C    0.58541011    0.46864003    0.50000000    -0.11400000
opls_145-5    C    0.50175017    0.37539015    0.50000000    -0.11400000
opls_145-6    C    0.53575018    0.35074013    0.50000000    -0.08750000
opls_700-7    C    0.59535009    0.38417004    0.50000000    0.07300000
opls_145-8    C    0.69102995    0.39210010    0.50000000    -0.06760000
opls_700-9    C    0.63170012    0.35815006    0.50000000    0.07320000
opls_145-10    C    0.36246014    0.50102007    0.50000000    -0.12870000
opls_145-11    C    0.40377992    0.48529997    0.50000000    -0.08760000
opls_145-12    C    0.47680992    0.58433016    0.50000000    -0.08750000
opls_145-13    C    0.43595999    0.60094008    0.50000000    -0.12870000
opls_166-14    C    0.37857004    0.55881992    0.50000000    0.37750000
opls_642-15    C    0.28402025    0.66456025    0.50000000    0.48670000
opls_145-16    C    0.90899995    0.47420988    0.50000000    0.21240000
opls_142-17    C    0.00483001    0.49577990    0.50000000    0.04090000
opls_700-18    C    0.06515015    0.53835019    0.50000000    0.07710000
opls_145-19    C    0.55643993    0.17550010    0.50000000    -0.08750000
opls_145-20    C    0.53136006    0.11677001    0.50000000    -0.11400000
opls_145-21    C    0.62461006    0.12636010    0.50000000    -0.11400000
opls_145-22    C    0.64926011    0.18501018    0.50000000    -0.08750000
opls_700-23    C    0.61583022    0.21118019    0.50000000    0.07300000
opls_145-24    C    0.60789978    0.29892984    0.50000000    -0.06760000
opls_700-25    C    0.64184986    0.27355003    0.50000000    0.07320000
opls_145-26    C    0.49897983    0.86143992    0.50000000    -0.12870000
opls_145-27    C    0.51470014    0.91847997    0.50000000    -0.08760000
opls_145-28    C    0.41567001    0.89248000    0.50000000    -0.08750000
opls_145-29    C    0.39906002    0.83502024    0.50000000    -0.12870000
opls_166-30    C    0.44118005    0.81975026    0.50000000    0.37750000
opls_642-31    C    0.33544003    0.61946011    0.50000000    0.48680000
opls_145-32    C    0.52579002    0.43479002    0.50000000    0.21250000
opls_142-33    C    0.50422016    0.50905016    0.50000000    0.04090000
opls_700-34    C    0.46164982    0.52679998    0.50000000    0.07710000
opls_145-35    C    0.82450014    0.38094000    0.50000000    -0.08750000
opls_145-36    C    0.88322984    0.41458996    0.50000000    -0.11400000
opls_145-37    C    0.87363997    0.49825014    0.50000000    -0.11400000
opls_145-38    C    0.81498991    0.46425009    0.50000000    -0.08750000
opls_700-39    C    0.78882023    0.40465017    0.50000000    0.07300000
opls_145-40    C    0.70106992    0.30897006    0.50000000    -0.06760000
opls_700-41    C    0.72645002    0.36829991    0.50000000    0.07320000
opls_145-42    C    0.13856003    0.63754002    0.50000000    -0.12870000
opls_145-43    C    0.08151994    0.59622006    0.50000000    -0.08760000
opls_145-44    C    0.10752028    0.52319024    0.50000000    -0.08740000
opls_145-45    C    0.16498019    0.56404008    0.50000000    -0.12860000
opls_166-46    C    0.18025011    0.62143022    0.50000000    0.37750000
opls_642-47    C    0.38053992    0.71598004    0.50000000    0.48680000
opls_750-48    N    0.96749007    0.51175006    0.50000000    -0.22780000
opls_641-49    N    0.33144990    0.71610007    0.50000000    -0.34260000
opls_750-50    N    0.48825005    0.45573987    0.50000000    -0.22780000
opls_641-51    N    0.28390000    0.61535024    0.50000000    -0.34260000
opls_750-52    N    0.54425988    0.03251007    0.50000000    -0.22790000
opls_641-53    N    0.38464996    0.66855009    0.50000000    -0.34260000
opls_180-54    O    0.33234998    0.56804992    0.50000000    -0.27750000
opls_180-55    O    0.43195018    0.76430022    0.50000000    -0.27750000
opls_180-56    O    0.23570004    0.66765026    0.50000000    -0.27750000
opls_144-57    H    0.45640000    0.00631004    0.50000000    0.02210000
opls_146-58    H    0.66525001    0.47133994    0.50000000    0.04310000
opls_146-59    H    0.60585012    0.51503011    0.50000000    0.04320000
opls_146-60    H    0.45540984    0.34836992    0.50000000    0.04310000
opls_146-61    H    0.51526012    0.30434005    0.50000000    0.04310000
opls_146-62    H    0.71018020    0.43823012    0.50000000    0.04310000
opls_146-63    H    0.31726018    0.46897012    0.50000000    0.04310000
opls_146-64    H    0.39238007    0.44064995    0.50000000    0.04310000
opls_146-65    H    0.52192003    0.61665018    0.50000000    0.04310000
opls_146-66    H    0.44795005    0.64592020    0.50000000    0.04310000
opls_144-67    H    0.99368984    0.45009000    0.50000000    0.02210000
opls_146-68    H    0.52866018    0.19391009    0.50000000    0.04310000
opls_146-69    H    0.48496997    0.09082005    0.50000000    0.04310000
opls_146-70    H    0.65162978    0.10703987    0.50000000    0.04310000
opls_146-71    H    0.69565999    0.21092012    0.50000000    0.04310000
opls_146-72    H    0.56176988    0.27195002    0.50000000    0.04310000
opls_146-73    H    0.53103001    0.84829009    0.50000000    0.04310000
opls_146-74    H    0.55935022    0.95173023    0.50000000    0.04310000
opls_146-75    H    0.38334990    0.90527013    0.50000000    0.04310000
opls_146-76    H    0.35408017    0.80203005    0.50000000    0.04310000
opls_144-77    H    0.54990982    0.54359995    0.50000000    0.02210000
opls_146-78    H    0.80608981    0.33474997    0.50000000    0.04320000
opls_146-79    H    0.90918011    0.39415024    0.50000000    0.04310000
opls_146-80    H    0.89296004    0.54459021    0.50000000    0.04310000
opls_146-81    H    0.78908009    0.48474023    0.50000000    0.04310000
opls_146-82    H    0.72804992    0.28981987    0.50000000    0.04310000
opls_146-83    H    0.15171001    0.68274019    0.50000000    0.04310000
opls_146-84    H    0.04827026    0.60762022    0.50000000    0.04310000
opls_146-85    H    0.09472993    0.47808009    0.50000000    0.04310000
opls_146-86    H    0.19796998    0.55205015    0.50000000    0.04310000
