#======================================================================
# Crystal Data Generated By AuToFF
#----------------------------------------------------------------------

data_AuToFF_phase_1

_cell_length_a                         50.7036
_cell_length_b                         50.7036
_cell_length_c                         5.7113
_cell_angle_alpha                      90.00
_cell_angle_beta                       90.00
_cell_angle_gamma                      120.00
_symmetry_space_group_name_H-M_alt     'P 1'
_symmetry_space_group_IT_number        1

loop_
_space_group_symop_operation_xyz
   'x, y, z'

loop_
   _atom_site_label
   _atom_site_type_symbol
   _atom_site_fract_x
   _atom_site_fract_y
   _atom_site_fract_z
   _atom_site_charge
opls_145-0    C    0.02663998    0.49850002    0.22191970    -0.17100000
opls_145-1    C    0.02813998    0.52674991    0.21436976    -0.17100000
opls_916-2    C    0.00148990    0.52877995    0.21069984    0.17760000
opls_916-3    C    0.96861007    0.41400996    0.16788997    0.16390000
opls_916-4    C    0.97614990    0.55982985    0.13511985    0.16950000
opls_145-5    C    0.96876985    0.57794984    0.27355943    -0.16980000
opls_145-6    C    0.94335991    0.58065989    0.21911999    -0.16420000
opls_145-7    C    0.92495986    0.56508985    0.02741057    0.18850000
opls_145-8    C    0.93328001    0.54811992    0.88169944    -0.16930000
opls_145-9    C    0.95891999    0.54575990    0.93458932    -0.17100000
opls_145-10    C    0.94771995    0.40327998    0.35304922    -0.16250000
opls_145-11    C    0.91987991    0.37627990    0.32924028    -0.15370000
opls_145-12    C    0.91269988    0.35949990    0.12197923    0.18680000
opls_145-13    C    0.93426007    0.37003995    0.93604083    -0.18390000
opls_145-14    C    0.96178994    0.39682004    0.96236934    -0.16940000
opls_145-15    C    0.75936006    0.57211002    0.68916009    -0.11890000
opls_145-16    C    0.73257999    0.57351993    0.70541033    -0.11900000
opls_700-17    C    0.71229995    0.55898996    0.89017036    0.05790000
opls_145-18    C    0.71855987    0.54250989    0.05591021    -0.11820000
opls_145-19    C    0.74493999    0.54056001    0.03725947    -0.11990000
opls_700-20    C    0.76558987    0.55549991    0.85468983    0.06820000
opls_142-21    C    0.87367982    0.54583983    0.88371999    0.06960000
opls_142-22    C    0.68460991    0.56105984    0.91182918    0.08260000
opls_700-23    C    0.79362004    0.55370991    0.84046014    0.06770000
opls_145-24    C    0.79176001    0.52536004    0.81397930    -0.11860000
opls_145-25    C    0.81809005    0.52311002    0.82017054    -0.11900000
opls_700-26    C    0.84655010    0.54908005    0.85845079    0.05270000
opls_145-27    C    0.84849002    0.57756998    0.88048080    -0.12990000
opls_145-28    C    0.82217005    0.57990996    0.86946930    -0.12510000
opls_145-29    C    0.50150009    0.52814001    0.22191970    -0.17100000
opls_145-30    C    0.47325000    0.50138998    0.21436976    -0.17100000
opls_916-31    C    0.47121993    0.47270990    0.21069984    0.17760000
opls_916-32    C    0.58598987    0.55459990    0.16788997    0.16390000
opls_916-33    C    0.44016990    0.41631988    0.13511985    0.16930000
opls_145-34    C    0.42204987    0.39081990    0.27355943    -0.16970000
opls_145-35    C    0.41934002    0.36270004    0.21911999    -0.16420000
opls_145-36    C    0.43490998    0.35986997    0.02741057    0.18850000
opls_145-37    C    0.45187993    0.38515999    0.88169944    -0.16930000
opls_145-38    C    0.45423996    0.41316005    0.93458932    -0.17100000
opls_145-39    C    0.59672001    0.54443994    0.35304922    -0.16250000
opls_145-40    C    0.62372001    0.54360005    0.32924028    -0.15370000
opls_145-41    C    0.64050001    0.55320001    0.12197923    0.18690000
opls_145-42    C    0.62996000    0.56421990    0.93604083    -0.18390000
opls_145-43    C    0.60317990    0.56496983    0.96236934    -0.16940000
opls_145-44    C    0.42789000    0.18724996    0.68916009    -0.11890000
opls_145-45    C    0.42647990    0.15905996    0.70541033    -0.11900000
opls_700-46    C    0.44100993    0.15330987    0.89017036    0.05790000
opls_145-47    C    0.45749005    0.17604993    0.05591021    -0.11830000
opls_145-48    C    0.45943997    0.20437999    0.03725947    -0.11990000
opls_700-49    C    0.44449999    0.21009000    0.85468983    0.06820000
opls_142-50    C    0.45415989    0.32783990    0.88371999    0.06960000
opls_142-51    C    0.43893998    0.12355009    0.91182918    0.08260000
opls_700-52    C    0.44628996    0.23990990    0.84046014    0.06770000
opls_145-53    C    0.47464010    0.26640008    0.81397930    -0.11860000
opls_145-54    C    0.47689006    0.29497996    0.82017054    -0.11900000
opls_700-55    C    0.45092006    0.29747002    0.85845079    0.05260000
opls_145-56    C    0.42242993    0.27091994    0.88048080    -0.12990000
opls_145-57    C    0.42008998    0.24225990    0.86946930    -0.12510000
opls_145-58    C    0.47185993    0.97335997    0.22191970    -0.17100000
opls_145-59    C    0.49860991    0.97185988    0.21436976    -0.17100000
opls_916-60    C    0.52729005    0.99850993    0.21069984    0.17760000
opls_916-61    C    0.44539995    0.03138991    0.16788997    0.16390000
opls_916-62    C    0.58368008    0.02385004    0.13511985    0.16930000
opls_145-63    C    0.60917997    0.03123004    0.27355943    -0.16980000
opls_145-64    C    0.63730007    0.05664007    0.21911999    -0.16420000
opls_145-65    C    0.64013005    0.07503995    0.02741057    0.18850000
opls_145-66    C    0.61484006    0.06672009    0.88169944    -0.16930000
opls_145-67    C    0.58684005    0.04108005    0.93458932    -0.17100000
opls_145-68    C    0.45556004    0.05228008    0.35304922    -0.16250000
opls_145-69    C    0.45640008    0.08012004    0.32924028    -0.15370000
opls_145-70    C    0.44680011    0.08730009    0.12197923    0.18680000
opls_145-71    C    0.43578001    0.06573992    0.93604083    -0.18390000
opls_145-72    C    0.43502985    0.03820990    0.96236934    -0.16940000
opls_145-73    C    0.81274994    0.24064002    0.68916009    -0.11890000
opls_145-74    C    0.84094000    0.26741988    0.70541033    -0.11900000
opls_700-75    C    0.84669001    0.28769994    0.89017036    0.05790000
opls_145-76    C    0.82394996    0.28143995    0.05591021    -0.11830000
opls_145-77    C    0.79562003    0.25506000    0.03725947    -0.11990000
opls_700-78    C    0.78991014    0.23441009    0.85468983    0.06820000
opls_142-79    C    0.67215997    0.12632004    0.88371999    0.06970000
opls_142-80    C    0.87645011    0.31539006    0.91182918    0.08260000
opls_700-81    C    0.76008989    0.20637996    0.84046014    0.06770000
opls_145-82    C    0.73359990    0.20823988    0.81397930    -0.11860000
opls_145-83    C    0.70502009    0.18191002    0.82017054    -0.11900000
opls_700-84    C    0.70253004    0.15344993    0.85845079    0.05260000
opls_145-85    C    0.72908005    0.15151008    0.88048080    -0.12990000
opls_145-86    C    0.75774005    0.17782991    0.86946930    -0.12510000
opls_145-87    C    0.97336002    0.50149998    0.22191970    -0.17100000
opls_145-88    C    0.97185990    0.47324986    0.21436976    -0.17100000
opls_916-89    C    0.99851010    0.47122005    0.21069984    0.17760000
opls_916-90    C    0.03138993    0.58599004    0.16788997    0.16390000
opls_916-91    C    0.02384998    0.44016993    0.13511985    0.16930000
opls_145-92    C    0.03123004    0.42204993    0.27355943    -0.16980000
opls_145-93    C    0.05663998    0.41933988    0.21911999    -0.16420000
opls_145-94    C    0.07504002    0.43490992    0.02741057    0.18850000
opls_145-95    C    0.06671987    0.45187985    0.88169944    -0.16930000
opls_145-96    C    0.04107989    0.45423988    0.93458932    -0.17100000
opls_145-97    C    0.05228005    0.59672002    0.35304922    -0.16250000
opls_145-98    C    0.08011998    0.62371987    0.32924028    -0.15370000
opls_145-99    C    0.08730001    0.64049987    0.12197923    0.18680000
opls_145-100    C    0.06573993    0.62996005    0.93604083    -0.18390000
opls_145-101    C    0.03821006    0.60317996    0.96236934    -0.16940000
opls_145-102    C    0.24063994    0.42788998    0.68916009    -0.11890000
opls_145-103    C    0.26742001    0.42648007    0.70541033    -0.11900000
opls_700-104    C    0.28770005    0.44101004    0.89017036    0.05790000
opls_145-105    C    0.28144002    0.45748989    0.05591021    -0.11830000
opls_145-106    C    0.25506001    0.45943999    0.03725947    -0.11990000
opls_700-107    C    0.23441001    0.44449986    0.85468983    0.06820000
opls_142-108    C    0.12632006    0.45415994    0.88371999    0.06960000
opls_142-109    C    0.31538998    0.43893993    0.91182918    0.08260000
opls_700-110    C    0.20637985    0.44628986    0.84046014    0.06770000
opls_145-111    C    0.20823999    0.47463996    0.81397930    -0.11860000
opls_145-112    C    0.18190995    0.47688998    0.82017054    -0.11900000
opls_700-113    C    0.15344990    0.45091995    0.85845079    0.05260000
opls_145-114    C    0.15150998    0.42243002    0.88048080    -0.12990000
opls_145-115    C    0.17782995    0.42009004    0.86946930    -0.12510000
opls_145-116    C    0.49849991    0.47185999    0.22191970    -0.17100000
opls_145-117    C    0.52675000    0.49861002    0.21436976    -0.17090000
opls_916-118    C    0.52877996    0.52728987    0.21069984    0.17760000
opls_916-119    C    0.41401002    0.44539987    0.16788997    0.16390000
opls_916-120    C    0.55982999    0.58367989    0.13511985    0.16930000
opls_145-121    C    0.57795002    0.60917988    0.27355943    -0.16980000
opls_145-122    C    0.58065998    0.63729996    0.21911999    -0.16420000
opls_145-123    C    0.56509002    0.64013003    0.02741057    0.18850000
opls_145-124    C    0.54812007    0.61484001    0.88169944    -0.16930000
opls_145-125    C    0.54576004    0.58683995    0.93458932    -0.17090000
opls_145-126    C    0.40327999    0.45556006    0.35304922    -0.16250000
opls_145-127    C    0.37627999    0.45639995    0.32924028    -0.15360000
opls_145-128    C    0.35949999    0.44679999    0.12197923    0.18680000
opls_145-129    C    0.37003988    0.43577987    0.93604083    -0.18390000
opls_145-130    C    0.39681999    0.43502994    0.96236934    -0.16940000
opls_145-131    C    0.57210988    0.81274981    0.68916009    -0.11880000
opls_145-132    C    0.57351998    0.84093981    0.70541033    -0.11900000
opls_700-133    C    0.55898995    0.84668990    0.89017036    0.05790000
opls_145-134    C    0.54250983    0.82394984    0.05591021    -0.11830000
opls_145-135    C    0.54056003    0.79562001    0.03725947    -0.11990000
opls_700-136    C    0.55550001    0.78991000    0.85468983    0.06820000
opls_142-137    C    0.54583999    0.67215987    0.88371999    0.06960000
opls_142-138    C    0.56106002    0.87644991    0.91182918    0.08260000
opls_700-139    C    0.55370992    0.76008987    0.84046014    0.06780000
opls_145-140    C    0.52535990    0.73359992    0.81397930    -0.11860000
opls_145-141    C    0.52310994    0.70502004    0.82017054    -0.11890000
opls_700-142    C    0.54907994    0.70252998    0.85845079    0.05260000
opls_145-143    C    0.57756996    0.72907983    0.88048080    -0.12990000
opls_145-144    C    0.57990990    0.75773987    0.86946930    -0.12510000
opls_145-145    C    0.52814007    0.02664003    0.22191970    -0.17100000
opls_145-146    C    0.50138998    0.02813990    0.21436976    -0.17100000
opls_916-147    C    0.47270995    0.00149007    0.21069984    0.17760000
opls_916-148    C    0.55459994    0.96860986    0.16788997    0.16390000
opls_916-149    C    0.41631992    0.97614996    0.13511985    0.16930000
opls_145-150    C    0.39082003    0.96876996    0.27355943    -0.16980000
opls_145-151    C    0.36269993    0.94335993    0.21911999    -0.16420000
opls_145-152    C    0.35986984    0.92495982    0.02741057    0.18850000
opls_145-153    C    0.38515994    0.93327991    0.88169944    -0.16930000
opls_145-154    C    0.41315995    0.95891995    0.93458932    -0.17100000
opls_145-155    C    0.54443996    0.94771992    0.35304922    -0.16250000
opls_145-156    C    0.54359992    0.91987996    0.32924028    -0.15370000
opls_145-157    C    0.55319989    0.91269991    0.12197923    0.18690000
opls_145-158    C    0.56421988    0.93425985    0.93604083    -0.18390000
opls_145-159    C    0.56497003    0.96178987    0.96236934    -0.16930000
opls_145-160    C    0.18725006    0.75935998    0.68916009    -0.11890000
opls_145-161    C    0.15905989    0.73257989    0.70541033    -0.11900000
opls_700-162    C    0.15330988    0.71229983    0.89017036    0.05790000
opls_145-163    C    0.17604992    0.71855982    0.05591021    -0.11830000
opls_145-164    C    0.20437997    0.74494000    0.03725947    -0.11990000
opls_700-165    C    0.21008986    0.76558991    0.85468983    0.06830000
opls_142-166    C    0.32784003    0.87367996    0.88371999    0.06960000
opls_142-167    C    0.12354989    0.68460994    0.91182918    0.08270000
opls_700-168    C    0.23991000    0.79361981    0.84046014    0.06770000
opls_145-169    C    0.26639999    0.79175990    0.81397930    -0.11860000
opls_145-170    C    0.29497991    0.81808998    0.82017054    -0.11900000
opls_700-171    C    0.29746985    0.84654984    0.85845079    0.05260000
opls_145-172    C    0.27091995    0.84848992    0.88048080    -0.12990000
opls_145-173    C    0.24225984    0.82216986    0.86946930    -0.12510000
opls_239-174    N    0.99719997    0.44206992    0.18782064    -0.14850000
opls_750-175    N    0.88352993    0.33197990    0.10004027    -0.33470000
opls_750-176    N    0.89804004    0.56694999    0.98533084    -0.35360000
opls_239-177    N    0.55792983    0.55512984    0.18782064    -0.14850000
opls_750-178    N    0.66801985    0.55154984    0.10004027    -0.33490000
opls_750-179    N    0.43305002    0.33108991    0.98533084    -0.35350000
opls_239-180    N    0.44487009    0.00280001    0.18782064    -0.14850000
opls_750-181    N    0.44845011    0.11647003    0.10004027    -0.33480000
opls_750-182    N    0.66891014    0.10196010    0.98533084    -0.35350000
opls_239-183    N    0.00279992    0.55792985    0.18782064    -0.14850000
opls_750-184    N    0.11646996    0.66801987    0.10004027    -0.33490000
opls_750-185    N    0.10195996    0.43305001    0.98533084    -0.35350000
opls_239-186    N    0.44207006    0.44486993    0.18782064    -0.14840000
opls_750-187    N    0.33198004    0.44844993    0.10004027    -0.33490000
opls_750-188    N    0.56694986    0.66890986    0.98533084    -0.35360000
opls_239-189    N    0.55512991    0.99719999    0.18782064    -0.14850000
opls_750-190    N    0.55154989    0.88352997    0.10004027    -0.33490000
opls_750-191    N    0.33108986    0.89803990    0.98533084    -0.35360000
opls_146-192    H    0.04772010    0.49818005    0.22898990    0.11520000
opls_146-193    H    0.05032006    0.54695004    0.20672001    0.11560000
opls_146-194    H    0.98314003    0.59013004    0.42142069    0.11620000
opls_146-195    H    0.93771000    0.59457999    0.32734929    0.11950000
opls_146-196    H    0.92050998    0.53726992    0.72522018    0.11950000
opls_146-197    H    0.96581999    0.53334991    0.81931959    0.11700000
opls_146-198    H    0.95302003    0.41562005    0.51592982    0.10090000
opls_146-199    H    0.90426009    0.36808006    0.47477982    0.11520000
opls_146-200    H    0.93128998    0.35857985    0.76850980    0.10590000
opls_146-201    H    0.97773006    0.40404996    0.81955947    0.11620000
opls_146-202    H    0.77502994    0.58370995    0.54694028    0.12070000
opls_146-203    H    0.70276988    0.53119986    0.19836990    0.11560000
opls_144-204    H    0.87204002    0.52447985    0.83343022    0.10590000
opls_144-205    H    0.67601988    0.57072994    0.77132001    0.02820000
opls_146-206    H    0.72782010    0.58621003    0.57595994    0.11790000
opls_146-207    H    0.74943002    0.52774990    0.16679040    0.12000000
opls_146-208    H    0.76983993    0.50493992    0.79146079    0.11240000
opls_146-209    H    0.81616994    0.50095000    0.80257034    0.11550000
opls_146-210    H    0.87039998    0.59781998    0.90923082    0.11820000
opls_146-211    H    0.82389990    0.60193994    0.89184074    0.11340000
opls_146-212    H    0.50181988    0.54953985    0.22898990    0.11520000
opls_146-213    H    0.45304995    0.50336991    0.20672001    0.11560000
opls_146-214    H    0.40986994    0.39301003    0.42142069    0.11620000
opls_146-215    H    0.40542002    0.34313005    0.32734929    0.11950000
opls_146-216    H    0.46272992    0.38323995    0.72522018    0.11950000
opls_146-217    H    0.46664994    0.43246997    0.81931959    0.11700000
opls_146-218    H    0.58437993    0.53739996    0.51592982    0.10090000
opls_146-219    H    0.63191997    0.53617998    0.47477982    0.11520000
opls_146-220    H    0.64141986    0.57270988    0.76850980    0.10590000
opls_146-221    H    0.59595002    0.57368003    0.81955947    0.11620000
opls_146-222    H    0.41629012    0.19132005    0.54694028    0.12070000
opls_146-223    H    0.46879997    0.17156992    0.19836990    0.11550000
opls_144-224    H    0.47551990    0.34755996    0.83343022    0.10590000
opls_144-225    H    0.42926996    0.10529004    0.77132001    0.02820000
opls_146-226    H    0.41378990    0.14160997    0.57595994    0.11800000
opls_146-227    H    0.47224999    0.22167991    0.16679040    0.12010000
opls_146-228    H    0.49505995    0.26489999    0.79146079    0.11250000
opls_146-229    H    0.49905003    0.31521994    0.80257034    0.11550000
opls_146-230    H    0.40217995    0.27257991    0.90923082    0.11820000
opls_146-231    H    0.39806002    0.22196002    0.89184074    0.11340000
opls_146-232    H    0.45045990    0.95227987    0.22898990    0.11530000
opls_146-233    H    0.49662988    0.94967982    0.20672001    0.11560000
opls_146-234    H    0.60699003    0.01685993    0.42142069    0.11620000
opls_146-235    H    0.65686998    0.06228996    0.32734929    0.11960000
opls_146-236    H    0.61675999    0.07948990    0.72522018    0.11950000
opls_146-237    H    0.56752996    0.03417989    0.81931959    0.11700000
opls_146-238    H    0.46260004    0.04697999    0.51592982    0.10090000
opls_146-239    H    0.46381993    0.09573996    0.47477982    0.11520000
opls_146-240    H    0.42729004    0.06871005    0.76850980    0.10590000
opls_146-241    H    0.42631993    0.02227002    0.81955947    0.11620000
opls_146-242    H    0.80867995    0.22497000    0.54694028    0.12070000
opls_146-243    H    0.82843004    0.29722999    0.19836990    0.11550000
opls_144-244    H    0.65243997    0.12795996    0.83343022    0.10590000
opls_144-245    H    0.89470997    0.32398001    0.77132001    0.02820000
opls_146-246    H    0.85839000    0.27218000    0.57595994    0.11790000
opls_146-247    H    0.77832007    0.25056996    0.16679040    0.12000000
opls_146-248    H    0.73510012    0.23016009    0.79146079    0.11250000
opls_146-249    H    0.68478003    0.18383006    0.80257034    0.11550000
opls_146-250    H    0.72741995    0.12959988    0.90923082    0.11820000
opls_146-251    H    0.77804008    0.17610004    0.89184074    0.11340000
opls_146-252    H    0.95227990    0.50181995    0.22898990    0.11520000
opls_146-253    H    0.94967994    0.45304996    0.20672001    0.11560000
opls_146-254    H    0.01685997    0.40986996    0.42142069    0.11620000
opls_146-255    H    0.06229000    0.40542001    0.32734929    0.11950000
opls_146-256    H    0.07948991    0.46272985    0.72522018    0.11950000
opls_146-257    H    0.03417990    0.46664986    0.81931959    0.11700000
opls_146-258    H    0.04697997    0.58437995    0.51592982    0.10090000
opls_146-259    H    0.09573991    0.63191994    0.47477982    0.11520000
opls_146-260    H    0.06870991    0.64141992    0.76850980    0.10590000
opls_146-261    H    0.02226994    0.59595004    0.81955947    0.11620000
opls_146-262    H    0.22497006    0.41629005    0.54694028    0.12080000
opls_146-263    H    0.29723001    0.46879991    0.19836990    0.11550000
opls_144-264    H    0.12795987    0.47551993    0.83343022    0.10590000
opls_144-265    H    0.32398012    0.42927006    0.77132001    0.02820000
opls_146-266    H    0.27217990    0.41378997    0.57595994    0.11790000
opls_146-267    H    0.25056987    0.47224987    0.16679040    0.12000000
opls_146-268    H    0.23015996    0.49505985    0.79146079    0.11240000
opls_146-269    H    0.18383006    0.49905000    0.80257034    0.11550000
opls_146-270    H    0.12960002    0.40218002    0.90923082    0.11830000
opls_146-271    H    0.17610010    0.39806006    0.89184074    0.11340000
opls_146-272    H    0.49818001    0.45045992    0.22898990    0.11520000
opls_146-273    H    0.54694994    0.49662986    0.20672001    0.11560000
opls_146-274    H    0.59013006    0.60698997    0.42142069    0.11620000
opls_146-275    H    0.59457998    0.65686995    0.32734929    0.11950000
opls_146-276    H    0.53727008    0.61676005    0.72522018    0.11950000
opls_146-277    H    0.53335006    0.56753003    0.81931959    0.11700000
opls_146-278    H    0.41562007    0.46260004    0.51592982    0.10090000
opls_146-279    H    0.36808003    0.46382002    0.47477982    0.11520000
opls_146-280    H    0.35858002    0.42728990    0.76850980    0.10590000
opls_146-281    H    0.40404998    0.42631997    0.81955947    0.11620000
opls_146-282    H    0.58370988    0.80867995    0.54694028    0.12070000
opls_146-283    H    0.53119991    0.82842985    0.19836990    0.11560000
opls_144-284    H    0.52448010    0.65244004    0.83343022    0.10590000
opls_144-285    H    0.57073004    0.89470996    0.77132001    0.02820000
opls_146-286    H    0.58620999    0.85838981    0.57595994    0.11790000
opls_146-287    H    0.52774989    0.77831986    0.16679040    0.12000000
opls_146-288    H    0.50494005    0.73510001    0.79146079    0.11240000
opls_146-289    H    0.50094986    0.68477983    0.80257034    0.11550000
opls_146-290    H    0.59781994    0.72741987    0.90923082    0.11830000
opls_146-291    H    0.60193998    0.77803998    0.89184074    0.11340000
opls_146-292    H    0.54953998    0.04771990    0.22898990    0.11520000
opls_146-293    H    0.50337001    0.05031996    0.20672001    0.11560000
opls_146-294    H    0.39300986    0.98313984    0.42142069    0.11620000
opls_146-295    H    0.34312991    0.93770982    0.32734929    0.11950000
opls_146-296    H    0.38323989    0.92050987    0.72522018    0.11950000
opls_146-297    H    0.43246993    0.96581988    0.81931959    0.11710000
opls_146-298    H    0.53739996    0.95302001    0.51592982    0.10090000
opls_146-299    H    0.53617995    0.90425981    0.47477982    0.09890000
opls_146-300    H    0.57270996    0.93128995    0.76850980    0.10590000
opls_146-301    H    0.57368007    0.97772998    0.81955947    0.11620000
opls_146-302    H    0.19132005    0.77503000    0.54694028    0.12070000
opls_146-303    H    0.17156996    0.70277001    0.19836990    0.11560000
opls_144-304    H    0.34755991    0.87203981    0.83343022    0.10590000
opls_144-305    H    0.10529003    0.67601999    0.77132001    0.02820000
opls_146-306    H    0.14161000    0.72782000    0.57595994    0.11790000
opls_146-307    H    0.22167993    0.74943004    0.16679040    0.12000000
opls_146-308    H    0.26489988    0.76983991    0.79146079    0.11240000
opls_146-309    H    0.31521997    0.81616994    0.80257034    0.11550000
opls_146-310    H    0.27257993    0.87039989    0.90923082    0.11820000
opls_146-311    H    0.22195992    0.82389996    0.89184074    0.11340000
