#======================================================================
# Crystal Data Generated By AuToFF
#----------------------------------------------------------------------

data_AuToFF_phase_1

_cell_length_a                         13.1988
_cell_length_b                         13.1988
_cell_length_c                         7.4393
_cell_angle_alpha                      90.00
_cell_angle_beta                       90.00
_cell_angle_gamma                      90.00
_symmetry_space_group_name_H-M_alt     'P 1'
_symmetry_space_group_IT_number        1

loop_
_space_group_symop_operation_xyz
   'x, y, z'

loop_
   _atom_site_label
   _atom_site_type_symbol
   _atom_site_fract_x
   _atom_site_fract_y
   _atom_site_fract_z
   _atom_site_charge
opls_700-0    C    0.57310968    0.55838031    0.37291009    0.07990000
opls_145-1    C    0.74014001    0.59111965    0.24163026    -0.11960000
opls_145-2    C    0.67926024    0.54316983    0.36968935    -0.13140000
opls_145-3    C    0.53148998    0.62334985    0.24147030    -0.12940000
opls_700-4    C    0.34704973    0.69688987    0.89046012    0.05230000
opls_145-5    C    0.32947995    0.59231976    0.88684957    -0.12390000
opls_142-6    C    0.19282965    0.73939979    0.46282043    0.01680000
opls_700-7    C    0.42689032    0.44161969    0.37291009    0.07990000
opls_145-8    C    0.25985999    0.40888035    0.24163026    -0.11960000
opls_145-9    C    0.32073976    0.45683017    0.36968935    -0.13140000
opls_145-10    C    0.46851002    0.37665015    0.24147030    -0.12940000
opls_700-11    C    0.65295027    0.30311013    0.89046012    0.05230000
opls_145-12    C    0.67052005    0.40768024    0.88684957    -0.12390000
opls_142-13    C    0.80717035    0.26060021    0.46282043    0.01680000
opls_700-14    C    0.94161969    0.07310968    0.87291009    0.07990000
opls_145-15    C    0.90888035    0.24014001    0.74163026    -0.11960000
opls_145-16    C    0.95683017    0.17926024    0.86968935    -0.13140000
opls_145-17    C    0.87665015    0.03148998    0.74147030    -0.12940000
opls_700-18    C    0.80311013    0.84704973    0.39046012    0.05230000
opls_145-19    C    0.90768024    0.82947995    0.38684957    -0.12390000
opls_142-20    C    0.76060021    0.69282965    0.96282043    0.01680000
opls_700-21    C    0.05838031    0.92689032    0.87291009    0.07990000
opls_145-22    C    0.09111965    0.75985999    0.74163026    -0.11960000
opls_145-23    C    0.04316983    0.82073976    0.86968935    -0.13140000
opls_145-24    C    0.12334985    0.96851002    0.74147030    -0.12940000
opls_700-25    C    0.19688987    0.15295027    0.39046012    0.05230000
opls_145-26    C    0.09231976    0.17052005    0.38684957    -0.12390000
opls_142-27    C    0.23939979    0.30717035    0.96282043    0.01680000
opls_700-28    C    0.92689032    0.94161969    0.12708991    0.07990000
opls_145-29    C    0.75985999    0.90888035    0.25836974    -0.11960000
opls_145-30    C    0.82073976    0.95683017    0.13031065    -0.13140000
opls_145-31    C    0.96851002    0.87665015    0.25852970    -0.12940000
opls_700-32    C    0.15295027    0.80311013    0.60953988    0.05230000
opls_145-33    C    0.17052005    0.90768024    0.61315043    -0.12390000
opls_142-34    C    0.30717035    0.76060021    0.03717957    0.01680000
opls_700-35    C    0.07310968    0.05838031    0.12708991    0.07990000
opls_145-36    C    0.24014001    0.09111965    0.25836974    -0.11960000
opls_145-37    C    0.17926024    0.04316983    0.13031065    -0.13140000
opls_145-38    C    0.03148998    0.12334985    0.25852970    -0.12940000
opls_700-39    C    0.84704973    0.19688987    0.60953988    0.05230000
opls_145-40    C    0.82947995    0.09231976    0.61315043    -0.12390000
opls_142-41    C    0.69282965    0.23939979    0.03717957    0.01680000
opls_700-42    C    0.55838031    0.42689032    0.62708991    0.07990000
opls_145-43    C    0.59111965    0.25985999    0.75836974    -0.11960000
opls_145-44    C    0.54316983    0.32073976    0.63031065    -0.13140000
opls_145-45    C    0.62334985    0.46851002    0.75852970    -0.12930000
opls_700-46    C    0.69688987    0.65295027    0.10953988    0.05230000
opls_145-47    C    0.59231976    0.67052005    0.11315043    -0.12390000
opls_142-48    C    0.73939979    0.80717035    0.53717957    0.01680000
opls_700-49    C    0.44161969    0.57310968    0.62708991    0.07990000
opls_145-50    C    0.40888035    0.74014001    0.75836974    -0.11950000
opls_145-51    C    0.45683017    0.67926024    0.63031065    -0.13130000
opls_145-52    C    0.37665015    0.53148998    0.75852970    -0.12940000
opls_700-53    C    0.30311013    0.34704973    0.10953988    0.05230000
opls_145-54    C    0.40768024    0.32947995    0.11315043    -0.12390000
opls_142-55    C    0.26060021    0.19282965    0.53717957    0.01680000
opls_701-56    C    0.50000000    0.50000000    0.50000000    0.03170000
opls_701-57    C    0.00000000    0.00000000    0.00000000    0.03170000
opls_146-58    H    0.82084962    0.57620996    0.24097966    0.11150000
opls_146-59    H    0.71660984    0.49200003    0.46079067    0.09680000
opls_146-60    H    0.45070991    0.63633967    0.23762048    0.11550000
opls_146-61    H    0.28068006    0.55729991    0.98540051    0.11860000
opls_144-62    H    0.18224005    0.65810983    0.46860054    0.09430000
opls_146-63    H    0.17915038    0.42379004    0.24097966    0.11160000
opls_146-64    H    0.28339016    0.50799997    0.46079067    0.09680000
opls_146-65    H    0.54929009    0.36366033    0.23762048    0.11570000
opls_146-66    H    0.71931994    0.44270009    0.98540051    0.11860000
opls_144-67    H    0.81775995    0.34189017    0.46860054    0.09440000
opls_146-68    H    0.92379004    0.32084962    0.74097966    0.11150000
opls_146-69    H    0.00799997    0.21660984    0.96079067    0.09680000
opls_146-70    H    0.86366033    0.95070991    0.73762048    0.11550000
opls_146-71    H    0.94270009    0.78068006    0.48540051    0.11870000
opls_144-72    H    0.84189017    0.68224005    0.96860054    0.09430000
opls_146-73    H    0.07620996    0.67915038    0.74097966    0.11150000
opls_146-74    H    0.99200003    0.78339016    0.96079067    0.09680000
opls_146-75    H    0.13633967    0.04929009    0.73762048    0.11560000
opls_146-76    H    0.05729991    0.21931994    0.48540051    0.11860000
opls_144-77    H    0.15810983    0.31775995    0.96860054    0.09430000
opls_146-78    H    0.67915038    0.92379004    0.25902034    0.11150000
opls_146-79    H    0.78339016    0.00799997    0.03920933    0.09680000
opls_146-80    H    0.04929009    0.86366033    0.26237952    0.11550000
opls_146-81    H    0.21931994    0.94270009    0.51459949    0.11860000
opls_144-82    H    0.31775995    0.84189017    0.03139946    0.09440000
opls_146-83    H    0.32084962    0.07620996    0.25902034    0.11150000
opls_146-84    H    0.21660984    0.99200003    0.03920933    0.09680000
opls_146-85    H    0.95070991    0.13633967    0.26237952    0.11550000
opls_146-86    H    0.78068006    0.05729991    0.51459949    0.11860000
opls_144-87    H    0.68224005    0.15810983    0.03139946    0.09430000
opls_146-88    H    0.57620996    0.17915038    0.75902034    0.11150000
opls_146-89    H    0.49200003    0.28339016    0.53920933    0.09680000
opls_146-90    H    0.63633967    0.54929009    0.76237952    0.11560000
opls_146-91    H    0.55729991    0.71931994    0.01459949    0.11860000
opls_144-92    H    0.65810983    0.81775995    0.53139946    0.09430000
opls_146-93    H    0.42379004    0.82084962    0.75902034    0.11150000
opls_146-94    H    0.50799997    0.71660984    0.53920933    0.09680000
opls_146-95    H    0.36366033    0.45070991    0.76237952    0.11550000
opls_146-96    H    0.44270009    0.28068006    0.01459949    0.11860000
opls_144-97    H    0.34189017    0.18224005    0.53139946    0.09430000
opls_750-98    N    0.23386975    0.77999970    0.32203030    -0.18950000
opls_750-99    N    0.76613025    0.22000030    0.32203030    -0.18940000
opls_750-100    N    0.72000030    0.73386975    0.82203030    -0.18950000
opls_750-101    N    0.27999970    0.26613025    0.82203030    -0.18940000
opls_750-102    N    0.26613025    0.72000030    0.17796970    -0.18950000
opls_750-103    N    0.73386975    0.27999970    0.17796970    -0.18940000
opls_750-104    N    0.77999970    0.76613025    0.67796970    -0.18950000
opls_750-105    N    0.22000030    0.23386975    0.67796970    -0.18950000
