#======================================================================
# Crystal Data Generated By AuToFF
#----------------------------------------------------------------------

data_AuToFF_phase_1

_cell_length_a                         31.9966
_cell_length_b                         31.9966
_cell_length_c                         3.6969
_cell_angle_alpha                      90.00
_cell_angle_beta                       90.00
_cell_angle_gamma                      120.00
_symmetry_space_group_name_H-M_alt     'P 1'
_symmetry_space_group_IT_number        1

loop_
_space_group_symop_operation_xyz
   'x, y, z'

loop_
   _atom_site_label
   _atom_site_type_symbol
   _atom_site_fract_x
   _atom_site_fract_y
   _atom_site_fract_z
   _atom_site_charge
opls_145-0    C    0.61449010    0.31656013    0.00000000    -0.06460000
opls_700-1    C    0.63095986    0.28078984    0.00000000    0.07920000
opls_142-2    C    0.63294998    0.40708996    0.00000000    0.04310000
opls_145-3    C    0.56234005    0.42489012    0.00000000    0.21830000
opls_145-4    C    0.59108988    0.47829997    0.00000000    -0.11190000
opls_145-5    C    0.56694983    0.50738997    0.00000000    -0.08480000
opls_700-6    C    0.51313009    0.48424009    0.00000000    0.08030000
opls_145-7    C    0.48500987    0.43027990    0.00000000    -0.08500000
opls_145-8    C    0.50939996    0.40146995    0.00000000    -0.11180000
opls_145-9    C    0.68343988    0.29792994    0.00000000    -0.06460000
opls_700-10    C    0.71920991    0.35016981    0.00000000    0.07920000
opls_142-11    C    0.59291004    0.22585996    0.00000000    0.04300000
opls_145-12    C    0.57511002    0.13744994    0.00000000    0.21830000
opls_145-13    C    0.52170013    0.11279014    0.00000000    -0.11190000
opls_145-14    C    0.49261012    0.05956001    0.00000000    -0.08490000
opls_700-15    C    0.51576017    0.02889007    0.00000000    0.08030000
opls_145-16    C    0.56972010    0.05472996    0.00000000    -0.08510000
opls_145-17    C    0.59853011    0.10793013    0.00000000    -0.11180000
opls_145-18    C    0.70207002    0.38550993    0.00000000    -0.06460000
opls_700-19    C    0.64983006    0.36903998    0.00000000    0.07920000
opls_142-20    C    0.77413998    0.36705008    0.00000000    0.04300000
opls_145-21    C    0.86254993    0.43765994    0.00000000    0.21830000
opls_145-22    C    0.88720999    0.40890989    0.00000000    -0.11190000
opls_145-23    C    0.94044006    0.43305003    0.00000000    -0.08490000
opls_700-24    C    0.97111005    0.48686984    0.00000000    0.08030000
opls_145-25    C    0.94527002    0.51499015    0.00000000    -0.08510000
opls_145-26    C    0.89206993    0.49059992    0.00000000    -0.11180000
opls_145-27    C    0.38550990    0.68343987    0.00000000    -0.06460000
opls_700-28    C    0.36903996    0.71920980    0.00000000    0.07920000
opls_142-29    C    0.36705002    0.59291004    0.00000000    0.04300000
opls_145-30    C    0.43765995    0.57510988    0.00000000    0.21830000
opls_145-31    C    0.40891012    0.52170003    0.00000000    -0.11180000
opls_145-32    C    0.43305017    0.49261003    0.00000000    -0.08490000
opls_700-33    C    0.48686991    0.51575991    0.00000000    0.08030000
opls_145-34    C    0.51499013    0.56972010    0.00000000    -0.08510000
opls_145-35    C    0.49060004    0.59853005    0.00000000    -0.11170000
opls_145-36    C    0.31656012    0.70207006    0.00000000    -0.06460000
opls_700-37    C    0.28078991    0.64982983    0.00000000    0.07930000
opls_142-38    C    0.40708996    0.77414004    0.00000000    0.04300000
opls_145-39    C    0.42488998    0.86255006    0.00000000    0.21830000
opls_145-40    C    0.47829987    0.88720986    0.00000000    -0.11190000
opls_145-41    C    0.50738988    0.94043999    0.00000000    -0.08490000
opls_700-42    C    0.48423983    0.97110993    0.00000000    0.08030000
opls_145-43    C    0.43027990    0.94527004    0.00000000    -0.08510000
opls_145-44    C    0.40146989    0.89206987    0.00000000    -0.11170000
opls_145-45    C    0.29792998    0.61449007    0.00000000    -0.06460000
opls_700-46    C    0.35016994    0.63096002    0.00000000    0.07940000
opls_142-47    C    0.22586002    0.63294992    0.00000000    0.04300000
opls_145-48    C    0.13745007    0.56234006    0.00000000    0.21840000
opls_145-49    C    0.11279001    0.59109011    0.00000000    -0.11190000
opls_145-50    C    0.05955994    0.56694997    0.00000000    -0.08480000
opls_700-51    C    0.02888977    0.51312980    0.00000000    0.08030000
opls_145-52    C    0.05472998    0.48500985    0.00000000    -0.08510000
opls_145-53    C    0.10793007    0.50940008    0.00000000    -0.11180000
opls_750-54    N    0.58471004    0.39276005    0.00000000    -0.22700000
opls_750-55    N    0.60723996    0.19195002    0.00000000    -0.22710000
opls_750-56    N    0.80805001    0.41528993    0.00000000    -0.22700000
opls_750-57    N    0.41528996    0.60723995    0.00000000    -0.22710000
opls_750-58    N    0.39276004    0.80804998    0.00000000    -0.22710000
opls_750-59    N    0.19194999    0.58471007    0.00000000    -0.22700000
opls_146-60    H    0.57406983    0.30357992    0.00000000    0.04660000
opls_144-61    H    0.66178992    0.44691982    0.00000000    0.02770000
opls_146-62    H    0.63215005    0.49821995    0.00000000    0.04700000
opls_146-63    H    0.59170995    0.54801989    0.00000000    0.04830000
opls_146-64    H    0.44407010    0.40897990    0.00000000    0.04840000
opls_146-65    H    0.48692016    0.36030014    0.00000000    0.04640000
opls_146-66    H    0.69641989    0.27048990    0.00000000    0.04660000
opls_144-67    H    0.55307985    0.21487001    0.00000000    0.02770000
opls_146-68    H    0.50177990    0.13392990    0.00000000    0.04700000
opls_146-69    H    0.45198000    0.04368985    0.00000000    0.04830000
opls_146-70    H    0.59102001    0.03509002    0.00000000    0.04830000
opls_146-71    H    0.63969992    0.12661987    0.00000000    0.04640000
opls_146-72    H    0.72950979    0.42592982    0.00000000    0.04660000
opls_144-73    H    0.78513005    0.33820981    0.00000000    0.02770000
opls_146-74    H    0.86607006    0.36785016    0.00000000    0.04700000
opls_146-75    H    0.95630987    0.40828990    0.00000000    0.04840000
opls_146-76    H    0.96490990    0.55593007    0.00000000    0.04830000
opls_146-77    H    0.87337991    0.51308000    0.00000000    0.04640000
opls_146-78    H    0.42593017    0.69642008    0.00000000    0.04660000
opls_144-79    H    0.33820990    0.55307982    0.00000000    0.02770000
opls_146-80    H    0.36784995    0.50178005    0.00000000    0.04700000
opls_146-81    H    0.40829005    0.45198011    0.00000000    0.04830000
opls_146-82    H    0.55592990    0.59102010    0.00000000    0.04840000
opls_146-83    H    0.51307984    0.63969986    0.00000000    0.04640000
opls_146-84    H    0.30358011    0.72951010    0.00000000    0.04660000
opls_144-85    H    0.44692015    0.78512999    0.00000000    0.02770000
opls_146-86    H    0.49822010    0.86607010    0.00000000    0.04700000
opls_146-87    H    0.54801982    0.95630979    0.00000000    0.04830000
opls_146-88    H    0.40897999    0.96490998    0.00000000    0.04830000
opls_146-89    H    0.36029990    0.87337977    0.00000000    0.04650000
opls_146-90    H    0.27049003    0.57406982    0.00000000    0.04660000
opls_144-91    H    0.21486977    0.66178982    0.00000000    0.02770000
opls_146-92    H    0.13392994    0.63214984    0.00000000    0.04700000
opls_146-93    H    0.04369013    0.59171010    0.00000000    0.04830000
opls_146-94    H    0.03509010    0.44406993    0.00000000    0.04830000
opls_146-95    H    0.12662009    0.48692000    0.00000000    0.04640000
