#======================================================================
# Crystal Data Generated By AuToFF
#----------------------------------------------------------------------

data_AuToFF_phase_1

_cell_length_a                         21.7621
_cell_length_b                         21.7621
_cell_length_c                         6.9709
_cell_angle_alpha                      90.00
_cell_angle_beta                       90.00
_cell_angle_gamma                      120.00
_symmetry_space_group_name_H-M_alt     'P 1'
_symmetry_space_group_IT_number        1

loop_
_space_group_symop_operation_xyz
   'x, y, z'

loop_
   _atom_site_label
   _atom_site_type_symbol
   _atom_site_fract_x
   _atom_site_fract_y
   _atom_site_fract_z
   _atom_site_charge
opls_280-0    C    0.07590994    0.02747986    0.25000072    0.34940000
opls_145-1    C    0.04879996    0.07757980    0.25000072    -0.16450000
opls_142-2    C    0.09026005    0.14857006    0.25000072    0.09980000
opls_141-3    C    0.21850985    0.25385999    0.25000072    0.35320000
opls_916-4    C    0.31338007    0.21928015    0.25000072    0.25040000
opls_145-5    C    0.26475983    0.14687001    0.25000072    -0.11100000
opls_145-6    C    0.28364992    0.09431975    0.25000072    -0.14060000
opls_280-7    C    0.59076000    0.30586002    0.25000072    0.34940000
opls_145-8    C    0.61786999    0.25575000    0.25000072    -0.16450000
opls_142-9    C    0.57641017    0.18476027    0.25000072    0.09960000
opls_141-10    C    0.44816010    0.07946980    0.25000072    0.35320000
opls_916-11    C    0.35329014    0.11406025    0.25000072    0.25040000
opls_145-12    C    0.40191011    0.18646987    0.25000072    -0.11100000
opls_145-13    C    0.38302003    0.23901005    0.25000072    -0.14060000
opls_280-14    C    0.97252015    0.04843014    0.25000072    0.34940000
opls_145-15    C    0.92241995    0.97122017    0.25000072    -0.16450000
opls_142-16    C    0.85143008    0.94169006    0.25000072    0.09980000
opls_141-17    C    0.74614020    0.96465026    0.25000072    0.35320000
opls_916-18    C    0.78072004    0.09410008    0.25000072    0.25040000
opls_145-19    C    0.85312991    0.11789014    0.25000072    -0.11100000
opls_145-20    C    0.90567993    0.18932981    0.25000072    -0.14060000
opls_280-21    C    0.69413996    0.28490019    0.25000072    0.34940000
opls_145-22    C    0.74425025    0.36212024    0.25000072    -0.16450000
opls_142-23    C    0.81523985    0.39164982    0.25000072    0.09960000
opls_141-24    C    0.92053000    0.36869015    0.25000072    0.35320000
opls_916-25    C    0.88594006    0.23923025    0.25000072    0.25040000
opls_145-26    C    0.81353020    0.21544019    0.25000072    -0.11100000
opls_145-27    C    0.76099001    0.14401006    0.25000072    -0.14060000
opls_280-28    C    0.95156991    0.92409000    0.25000072    0.34940000
opls_145-29    C    0.02878009    0.95120004    0.25000072    -0.16450000
opls_142-30    C    0.05830987    0.90973988    0.25000072    0.09960000
opls_141-31    C    0.03535021    0.78149028    0.25000072    0.35320000
opls_916-32    C    0.90590016    0.68662030    0.25000072    0.25040000
opls_145-33    C    0.88210980    0.73523986    0.25000072    -0.11100000
opls_145-34    C    0.81066989    0.71634991    0.25000072    -0.14060000
opls_280-35    C    0.71510004    0.40923979    0.25000072    0.34940000
opls_145-36    C    0.63788002    0.38213029    0.25000072    -0.16470000
opls_142-37    C    0.60834998    0.42358991    0.25000072    0.09960000
opls_141-38    C    0.63130990    0.55184005    0.25000072    0.35320000
opls_916-39    C    0.76077006    0.64671003    0.25000072    0.25040000
opls_145-40    C    0.78456015    0.59808994    0.25000072    -0.11100000
opls_145-41    C    0.85598996    0.61697989    0.25000072    -0.14060000
opls_280-42    C    0.92409006    0.97252014    0.75000072    0.34940000
opls_145-43    C    0.95120004    0.92242020    0.75000072    -0.16450000
opls_142-44    C    0.90973995    0.85142994    0.75000072    0.09980000
opls_141-45    C    0.78149015    0.74614001    0.75000072    0.35320000
opls_916-46    C    0.68661993    0.78071985    0.75000072    0.25040000
opls_145-47    C    0.73524017    0.85312999    0.75000072    -0.11100000
opls_145-48    C    0.71635008    0.90568025    0.75000072    -0.14060000
opls_280-49    C    0.40924000    0.69413998    0.75000072    0.34940000
opls_145-50    C    0.38213001    0.74425000    0.75000072    -0.16470000
opls_142-51    C    0.42359010    0.81524026    0.75000072    0.09960000
opls_141-52    C    0.55183990    0.92053020    0.75000072    0.35320000
opls_916-53    C    0.64671013    0.88594028    0.75000072    0.25040000
opls_145-54    C    0.59808989    0.81353013    0.75000072    -0.11100000
opls_145-55    C    0.61697997    0.76098995    0.75000072    -0.14060000
opls_280-56    C    0.02747985    0.95156986    0.75000072    0.34940000
opls_145-57    C    0.07758005    0.02877983    0.75000072    -0.16450000
opls_142-58    C    0.14856992    0.05830994    0.75000072    0.09980000
opls_141-59    C    0.25385980    0.03534974    0.75000072    0.35320000
opls_916-60    C    0.21927996    0.90589992    0.75000072    0.25040000
opls_145-61    C    0.14687009    0.88210986    0.75000072    -0.11100000
opls_145-62    C    0.09432007    0.81067019    0.75000072    -0.14060000
opls_280-63    C    0.30586004    0.71509981    0.75000072    0.34950000
opls_145-64    C    0.25575001    0.63788029    0.75000072    -0.16450000
opls_142-65    C    0.18476015    0.60835018    0.75000072    0.09960000
opls_141-66    C    0.07947000    0.63130985    0.75000072    0.35320000
opls_916-67    C    0.11406020    0.76077029    0.75000072    0.25040000
opls_145-68    C    0.18646980    0.78455981    0.75000072    -0.11100000
opls_145-69    C    0.23900999    0.85598994    0.75000072    -0.14060000
opls_280-70    C    0.04843009    0.07591000    0.75000072    0.34950000
opls_145-71    C    0.97121991    0.04879996    0.75000072    -0.16450000
opls_142-72    C    0.94169013    0.09026012    0.75000072    0.09960000
opls_141-73    C    0.96465006    0.21851025    0.75000072    0.35330000
opls_916-74    C    0.09410011    0.31338023    0.75000072    0.25040000
opls_145-75    C    0.11789020    0.26476014    0.75000072    -0.11100000
opls_145-76    C    0.18933011    0.28365009    0.75000072    -0.14060000
opls_280-77    C    0.28489996    0.59076021    0.75000072    0.34940000
opls_145-78    C    0.36212024    0.61787024    0.75000072    -0.16470000
opls_142-79    C    0.39165002    0.57641009    0.75000072    0.09960000
opls_141-80    C    0.36869010    0.44815995    0.75000072    0.35320000
opls_916-81    C    0.23922994    0.35328997    0.75000072    0.25040000
opls_145-82    C    0.21543985    0.40191006    0.75000072    -0.11100000
opls_145-83    C    0.14401004    0.38302011    0.75000072    -0.14060000
opls_750-84    N    0.16499001    0.18077015    0.25000072    -0.26120000
opls_238-85    N    0.29142014    0.27161021    0.25000072    -0.32620000
opls_750-86    N    0.50168020    0.15257026    0.25000072    -0.26100000
opls_238-87    N    0.37525006    0.06173020    0.25000072    -0.32620000
opls_750-88    N    0.81923004    0.98421991    0.25000072    -0.26120000
opls_238-89    N    0.72838990    0.01981001    0.25000072    -0.32600000
opls_750-90    N    0.84742981    0.34910989    0.25000072    -0.26100000
opls_238-91    N    0.93826995    0.31351978    0.25000072    -0.32620000
opls_750-92    N    0.01577996    0.83500995    0.25000072    -0.26120000
opls_238-93    N    0.98019023    0.70858031    0.25000072    -0.32620000
opls_750-94    N    0.65089000    0.49831985    0.25000072    -0.26100000
opls_238-95    N    0.68647999    0.62475002    0.25000072    -0.32620000
opls_750-96    N    0.83500999    0.81922985    0.75000072    -0.26110000
opls_238-97    N    0.70858012    0.72839032    0.75000072    -0.32620000
opls_750-98    N    0.49832007    0.84743027    0.75000072    -0.26100000
opls_238-99    N    0.62475020    0.93827033    0.75000072    -0.32620000
opls_750-100    N    0.18076996    0.01578009    0.75000072    -0.26120000
opls_238-101    N    0.27161010    0.98018999    0.75000072    -0.32610000
opls_750-102    N    0.15257019    0.65089011    0.75000072    -0.26100000
opls_238-103    N    0.06173005    0.68648022    0.75000072    -0.32620000
opls_750-104    N    0.98422004    0.16499005    0.75000072    -0.26120000
opls_238-105    N    0.01981004    0.29142022    0.75000072    -0.32620000
opls_750-106    N    0.34911000    0.50168015    0.75000072    -0.26100000
opls_238-107    N    0.31352001    0.37524998    0.75000072    -0.32620000
opls_474-108    S    0.20075994    0.30907016    0.25000072    -0.18070000
opls_474-109    S    0.46591028    0.02426017    0.25000072    -0.18070000
opls_474-110    S    0.69092974    0.89168988    0.25000072    -0.18070000
opls_474-111    S    0.97574020    0.44165000    0.25000072    -0.18060000
opls_474-112    S    0.10830986    0.79923997    0.25000072    -0.18070000
opls_474-113    S    0.55834998    0.53408983    0.25000072    -0.18070000
opls_474-114    S    0.79924006    0.69092984    0.75000072    -0.18070000
opls_474-115    S    0.53408972    0.97573983    0.75000072    -0.18070000
opls_474-116    S    0.30907026    0.10831012    0.75000072    -0.18070000
opls_474-117    S    0.02425980    0.55835000    0.75000072    -0.18070000
opls_474-118    S    0.89169014    0.20076003    0.75000072    -0.18070000
opls_474-119    S    0.44165002    0.46591017    0.75000072    -0.18070000
opls_281-120    O    0.13848984    0.04869013    0.25000072    -0.28550000
opls_281-121    O    0.52818036    0.28465028    0.25000072    -0.28550000
opls_281-122    O    0.95131027    0.08980009    0.25000072    -0.28550000
opls_281-123    O    0.71535030    0.24353024    0.25000072    -0.28550000
opls_281-124    O    0.91020016    0.86151032    0.25000072    -0.28550000
opls_281-125    O    0.75647006    0.47182001    0.25000072    -0.28550000
opls_281-126    O    0.86151016    0.95130987    0.75000072    -0.28550000
opls_281-127    O    0.47181990    0.71535025    0.75000072    -0.28550000
opls_281-128    O    0.04868973    0.91019991    0.75000072    -0.28550000
opls_281-129    O    0.28464997    0.75647029    0.75000072    -0.28550000
opls_281-130    O    0.08980011    0.13849022    0.75000072    -0.28550000
opls_281-131    O    0.24352994    0.52817999    0.75000072    -0.28550000
opls_144-132    H    0.06520987    0.18372984    0.25000072    0.02930000
opls_910-133    H    0.33413986    0.32808002    0.25000072    0.28820000
opls_146-134    H    0.20541988    0.12736987    0.25000072    0.04970000
opls_146-135    H    0.24071996    0.03595994    0.25000072    0.04970000
opls_144-136    H    0.60146009    0.14959995    0.25000072    0.02930000
opls_910-137    H    0.33251997    0.00525985    0.25000072    0.28820000
opls_146-138    H    0.46123997    0.20595993    0.25000072    0.04970000
opls_146-139    H    0.42594998    0.29737994    0.25000072    0.04970000
opls_144-140    H    0.81626995    0.88148004    0.25000072    0.02930000
opls_910-141    H    0.67191995    0.00606000    0.25000072    0.28820000
opls_146-142    H    0.87263017    0.07804991    0.25000072    0.04980000
opls_146-143    H    0.96404007    0.20476024    0.25000072    0.04970000
opls_144-144    H    0.85039998    0.45185984    0.25000072    0.02930000
opls_910-145    H    0.99474017    0.32726024    0.25000072    0.28820000
opls_146-146    H    0.79403978    0.25527988    0.25000072    0.04970000
opls_146-147    H    0.70262004    0.12857009    0.25000072    0.04970000
opls_144-148    H    0.11852018    0.93479012    0.25000072    0.02930000
opls_910-149    H    0.99394018    0.66585998    0.25000072    0.28820000
opls_146-150    H    0.92194996    0.79458022    0.25000072    0.04970000
opls_146-151    H    0.79523997    0.75927982    0.25000072    0.04970000
opls_144-152    H    0.54813993    0.39854021    0.25000072    0.02930000
opls_910-153    H    0.67273986    0.66747990    0.25000072    0.28820000
opls_146-154    H    0.74472025    0.53876019    0.25000072    0.04970000
opls_146-155    H    0.87142998    0.57404997    0.25000072    0.04970000
opls_144-156    H    0.93479013    0.81627016    0.75000072    0.02930000
opls_910-157    H    0.66586014    0.67191998    0.75000072    0.28820000
opls_146-158    H    0.79458012    0.87263013    0.75000072    0.04970000
opls_146-159    H    0.75928004    0.96404006    0.75000072    0.04970000
opls_144-160    H    0.39853991    0.85040005    0.75000072    0.02930000
opls_910-161    H    0.66748003    0.99474015    0.75000072    0.28820000
opls_146-162    H    0.53876003    0.79404007    0.75000072    0.04970000
opls_146-163    H    0.57405002    0.70262006    0.75000072    0.04970000
opls_144-164    H    0.18373005    0.11851996    0.75000072    0.02930000
opls_910-165    H    0.32808005    0.99394000    0.75000072    0.28820000
opls_146-166    H    0.12736983    0.92195009    0.75000072    0.04970000
opls_146-167    H    0.03596020    0.79524029    0.75000072    0.04980000
opls_144-168    H    0.14960002    0.54814016    0.75000072    0.02930000
opls_910-169    H    0.00526009    0.67274029    0.75000072    0.28820000
opls_146-170    H    0.20596022    0.74472012    0.75000072    0.04970000
opls_146-171    H    0.29737996    0.87142991    0.75000072    0.04970000
opls_144-172    H    0.88147982    0.06520988    0.75000072    0.02930000
opls_910-173    H    0.00605982    0.33414002    0.75000072    0.28820000
opls_146-174    H    0.07805004    0.20541978    0.75000072    0.04970000
opls_146-175    H    0.20476003    0.24072018    0.75000072    0.04970000
opls_144-176    H    0.45186007    0.60145979    0.75000072    0.02930000
opls_910-177    H    0.32726014    0.33252010    0.75000072    0.28820000
opls_146-178    H    0.25527975    0.46123981    0.75000072    0.04970000
opls_146-179    H    0.12857002    0.42595003    0.75000072    0.04970000
