#======================================================================
# Crystal Data Generated By AuToFF
#----------------------------------------------------------------------

data_AuToFF_phase_1

_cell_length_a                         24.9908
_cell_length_b                         44.0191
_cell_length_c                         5.6343
_cell_angle_alpha                      90.00
_cell_angle_beta                       95.22
_cell_angle_gamma                      90.00
_symmetry_space_group_name_H-M_alt     'P 1'
_symmetry_space_group_IT_number        1

loop_
_space_group_symop_operation_xyz
   'x, y, z'

loop_
   _atom_site_label
   _atom_site_type_symbol
   _atom_site_fract_x
   _atom_site_fract_y
   _atom_site_fract_z
   _atom_site_charge
opls_750-0    N    0.65323000    0.89165998    0.62345034    -0.23200000
opls_750-1    N    0.34677000    0.89165998    0.37654966    -0.23200000
opls_750-2    N    0.34677000    0.10834002    0.37654966    -0.23190000
opls_750-3    N    0.65323000    0.10834002    0.62345034    -0.23200000
opls_750-4    N    0.15323000    0.39165998    0.62345034    -0.23200000
opls_750-5    N    0.84677000    0.39165998    0.37654966    -0.23200000
opls_750-6    N    0.84677000    0.60834002    0.37654966    -0.23200000
opls_750-7    N    0.15323000    0.60834002    0.62345034    -0.23200000
opls_142-8    C    0.64768022    0.86535004    0.52090032    0.01650000
opls_700-9    C    0.67462021    0.83912006    0.63977031    0.06920000
opls_145-10    C    0.87039989    0.80406006    0.36634990    -0.10520000
opls_145-11    C    0.82278012    0.78843002    0.30668054    -0.08820000
opls_700-12    C    0.81449017    0.77289995    0.08901036    0.08890000
opls_145-13    C    0.85718027    0.77006004    0.94560963    -0.07180000
opls_145-14    C    0.90589990    0.78485998    0.00965973    -0.07190000
opls_700-15    C    0.54970990    0.96643003    0.50553920    0.08360000
opls_145-16    C    0.58262995    0.96314009    0.71855952    -0.10520000
opls_145-17    C    0.62096021    0.94022004    0.74274985    -0.10620000
opls_145-18    C    0.62406999    0.91879003    0.56216984    0.24150000
opls_145-19    C    0.59291015    0.92253999    0.34434995    -0.10710000
opls_145-20    C    0.55626996    0.94643007    0.31670029    -0.08980000
opls_700-21    C    0.91145994    0.80334991    0.21343915    0.01920000
opls_145-22    C    0.69926030    0.84219009    0.87219030    -0.10480000
opls_145-23    C    0.72448022    0.81766006    0.98785048    -0.10480000
opls_700-24    C    0.72661005    0.78935008    0.87471039    0.08510000
opls_145-25    C    0.70165014    0.78625006    0.64173968    -0.07400000
opls_145-26    C    0.67458011    0.81075011    0.52758906    -0.08970000
opls_141-27    C    0.74073981    0.73556002    0.00630021    -0.02090000
opls_232-28    C    0.95807992    0.17662992    0.25852980    0.27500000
opls_141-29    C    1.00000000    0.51534993    0.50000000    -0.00120000
opls_142-30    C    0.35232018    0.86535004    0.47909968    0.01650000
opls_700-31    C    0.32538020    0.83912006    0.36022969    0.06910000
opls_145-32    C    0.12960011    0.80406006    0.63365010    -0.10520000
opls_145-33    C    0.17722028    0.78843002    0.69331946    -0.08820000
opls_700-34    C    0.18551023    0.77289995    0.91098964    0.08890000
opls_145-35    C    0.14282013    0.77006004    0.05439037    -0.07180000
opls_145-36    C    0.09410010    0.78485998    0.99034027    -0.07200000
opls_700-37    C    0.45029010    0.96643003    0.49446080    0.08360000
opls_145-38    C    0.41737005    0.96314009    0.28144048    -0.10520000
opls_145-39    C    0.37904019    0.94022004    0.25725015    -0.10620000
opls_145-40    C    0.37593001    0.91879003    0.43783016    0.24150000
opls_145-41    C    0.40709025    0.92253999    0.65565005    -0.10710000
opls_145-42    C    0.44373004    0.94643007    0.68329971    -0.08980000
opls_700-43    C    0.08854002    0.80334991    0.78655907    0.01920000
opls_145-44    C    0.30074010    0.84219009    0.12780970    -0.10480000
opls_145-45    C    0.27552018    0.81766006    0.01214952    -0.10480000
opls_700-46    C    0.27338995    0.78935008    0.12528961    0.08510000
opls_145-47    C    0.29834986    0.78625006    0.35826032    -0.07400000
opls_145-48    C    0.32541986    0.81075011    0.47240916    -0.08970000
opls_141-49    C    0.25926019    0.73556002    0.99369979    -0.02090000
opls_232-50    C    0.04192008    0.17662992    0.74147020    0.27500000
opls_142-51    C    0.35232018    0.13464996    0.47909968    0.01650000
opls_700-52    C    0.32538020    0.16087994    0.36022969    0.06910000
opls_145-53    C    0.12960011    0.19593994    0.63365010    -0.10520000
opls_145-54    C    0.17722028    0.21156998    0.69331946    -0.08820000
opls_700-55    C    0.18551023    0.22710005    0.91098964    0.08890000
opls_145-56    C    0.14282013    0.22993996    0.05439037    -0.07180000
opls_145-57    C    0.09410010    0.21514002    0.99034027    -0.07200000
opls_700-58    C    0.45029010    0.03356997    0.49446080    0.08360000
opls_145-59    C    0.41737005    0.03685991    0.28144048    -0.10520000
opls_145-60    C    0.37904019    0.05977996    0.25725015    -0.10620000
opls_145-61    C    0.37593001    0.08120997    0.43783016    0.24150000
opls_145-62    C    0.40709025    0.07746001    0.65565005    -0.10710000
opls_145-63    C    0.44373004    0.05356993    0.68329971    -0.08980000
opls_700-64    C    0.08854002    0.19665009    0.78655907    0.01920000
opls_145-65    C    0.30074010    0.15780991    0.12780970    -0.10480000
opls_145-66    C    0.27552018    0.18233994    0.01214952    -0.10480000
opls_700-67    C    0.27338995    0.21064992    0.12528961    0.08510000
opls_145-68    C    0.29834986    0.21374994    0.35826032    -0.07400000
opls_145-69    C    0.32541986    0.18924989    0.47240916    -0.08970000
opls_141-70    C    0.25926019    0.26443998    0.99369979    -0.02090000
opls_232-71    C    0.04192008    0.82337008    0.74147020    0.27500000
opls_141-72    C    1.00000000    0.48465007    0.50000000    -0.00120000
opls_142-73    C    0.64768022    0.13464996    0.52090032    0.01650000
opls_700-74    C    0.67462021    0.16087994    0.63977031    0.06910000
opls_145-75    C    0.87039989    0.19593994    0.36634990    -0.10520000
opls_145-76    C    0.82278012    0.21156998    0.30668054    -0.08820000
opls_700-77    C    0.81449017    0.22710005    0.08901036    0.08890000
opls_145-78    C    0.85718027    0.22993996    0.94560963    -0.07180000
opls_145-79    C    0.90589990    0.21514002    0.00965973    -0.07200000
opls_700-80    C    0.54970990    0.03356997    0.50553920    0.08360000
opls_145-81    C    0.58262995    0.03685991    0.71855952    -0.10520000
opls_145-82    C    0.62096021    0.05977996    0.74274985    -0.10620000
opls_145-83    C    0.62406999    0.08120997    0.56216984    0.24150000
opls_145-84    C    0.59291015    0.07746001    0.34434995    -0.10710000
opls_145-85    C    0.55626996    0.05356993    0.31670029    -0.08980000
opls_700-86    C    0.91145994    0.19665009    0.21343915    0.01920000
opls_145-87    C    0.69926030    0.15780991    0.87219030    -0.10480000
opls_145-88    C    0.72448022    0.18233994    0.98785048    -0.10480000
opls_700-89    C    0.72661005    0.21064992    0.87471039    0.08510000
opls_145-90    C    0.70165014    0.21374994    0.64173968    -0.07400000
opls_145-91    C    0.67458011    0.18924989    0.52758906    -0.08970000
opls_141-92    C    0.74073981    0.26443998    0.00630021    -0.02090000
opls_232-93    C    0.95807992    0.82337008    0.25852980    0.27500000
opls_142-94    C    0.14768022    0.36535004    0.52090032    0.01650000
opls_700-95    C    0.17462021    0.33912006    0.63977031    0.06910000
opls_145-96    C    0.37039989    0.30406006    0.36634990    -0.10520000
opls_145-97    C    0.32278012    0.28843002    0.30668054    -0.08810000
opls_700-98    C    0.31449017    0.27289995    0.08901036    0.08890000
opls_145-99    C    0.35718027    0.27006004    0.94560963    -0.07180000
opls_145-100    C    0.40589990    0.28485998    0.00965973    -0.07200000
opls_700-101    C    0.04970990    0.46643003    0.50553920    0.08360000
opls_145-102    C    0.08262995    0.46314009    0.71855952    -0.10520000
opls_145-103    C    0.12096021    0.44022004    0.74274985    -0.10620000
opls_145-104    C    0.12406999    0.41879003    0.56216984    0.24150000
opls_145-105    C    0.09291015    0.42253999    0.34434995    -0.10710000
opls_145-106    C    0.05626996    0.44643007    0.31670029    -0.08980000
opls_700-107    C    0.41145994    0.30334991    0.21343915    0.01920000
opls_145-108    C    0.19926030    0.34219009    0.87219030    -0.10470000
opls_145-109    C    0.22448022    0.31766006    0.98785048    -0.10480000
opls_700-110    C    0.22661005    0.28935008    0.87471039    0.08510000
opls_145-111    C    0.20165014    0.28625006    0.64173968    -0.07400000
opls_145-112    C    0.17458011    0.31075011    0.52758906    -0.08960000
opls_141-113    C    0.24073981    0.23556002    0.00630021    -0.02090000
opls_232-114    C    0.45807992    0.67662992    0.25852980    0.27500000
opls_141-115    C    0.50000000    0.01534993    0.50000000    -0.00120000
opls_142-116    C    0.85232018    0.36535004    0.47909968    0.01650000
opls_700-117    C    0.82538020    0.33912006    0.36022969    0.06910000
opls_145-118    C    0.62960011    0.30406006    0.63365010    -0.10520000
opls_145-119    C    0.67722028    0.28843002    0.69331946    -0.08810000
opls_700-120    C    0.68551023    0.27289995    0.91098964    0.08890000
opls_145-121    C    0.64282013    0.27006004    0.05439037    -0.07180000
opls_145-122    C    0.59410010    0.28485998    0.99034027    -0.07200000
opls_700-123    C    0.95029010    0.46643003    0.49446080    0.08360000
opls_145-124    C    0.91737005    0.46314009    0.28144048    -0.10520000
opls_145-125    C    0.87904019    0.44022004    0.25725015    -0.10620000
opls_145-126    C    0.87593001    0.41879003    0.43783016    0.24150000
opls_145-127    C    0.90709025    0.42253999    0.65565005    -0.10710000
opls_145-128    C    0.94373004    0.44643007    0.68329971    -0.08980000
opls_700-129    C    0.58854002    0.30334991    0.78655907    0.01920000
opls_145-130    C    0.80074010    0.34219009    0.12780970    -0.10480000
opls_145-131    C    0.77552018    0.31766006    0.01214952    -0.10480000
opls_700-132    C    0.77338995    0.28935008    0.12528961    0.08510000
opls_145-133    C    0.79834986    0.28625006    0.35826032    -0.07400000
opls_145-134    C    0.82541986    0.31075011    0.47240916    -0.08970000
opls_141-135    C    0.75926019    0.23556002    0.99369979    -0.02090000
opls_232-136    C    0.54192008    0.67662992    0.74147020    0.27500000
opls_142-137    C    0.85232018    0.63464996    0.47909968    0.01650000
opls_700-138    C    0.82538020    0.66087994    0.36022969    0.06920000
opls_145-139    C    0.62960011    0.69593994    0.63365010    -0.10520000
opls_145-140    C    0.67722028    0.71156998    0.69331946    -0.08820000
opls_700-141    C    0.68551023    0.72710005    0.91098964    0.08890000
opls_145-142    C    0.64282013    0.72993996    0.05439037    -0.07180000
opls_145-143    C    0.59410010    0.71514002    0.99034027    -0.07190000
opls_700-144    C    0.95029010    0.53356997    0.49446080    0.08370000
opls_145-145    C    0.91737005    0.53685991    0.28144048    -0.10520000
opls_145-146    C    0.87904019    0.55977996    0.25725015    -0.10620000
opls_145-147    C    0.87593001    0.58120997    0.43783016    0.24150000
opls_145-148    C    0.90709025    0.57746001    0.65565005    -0.10700000
opls_145-149    C    0.94373004    0.55356993    0.68329971    -0.08980000
opls_700-150    C    0.58854002    0.69665009    0.78655907    0.01920000
opls_145-151    C    0.80074010    0.65780991    0.12780970    -0.10480000
opls_145-152    C    0.77552018    0.68233994    0.01214952    -0.10480000
opls_700-153    C    0.77338995    0.71064992    0.12528961    0.08510000
opls_145-154    C    0.79834986    0.71374994    0.35826032    -0.07400000
opls_145-155    C    0.82541986    0.68924989    0.47240916    -0.08970000
opls_141-156    C    0.75926019    0.76443998    0.99369979    -0.02090000
opls_232-157    C    0.54192008    0.32337008    0.74147020    0.27510000
opls_141-158    C    0.50000000    0.98465007    0.50000000    -0.00120000
opls_142-159    C    0.14768022    0.63464996    0.52090032    0.01650000
opls_700-160    C    0.17462021    0.66087994    0.63977031    0.06910000
opls_145-161    C    0.37039989    0.69593994    0.36634990    -0.10520000
opls_145-162    C    0.32278012    0.71156998    0.30668054    -0.08820000
opls_700-163    C    0.31449017    0.72710005    0.08901036    0.08890000
opls_145-164    C    0.35718027    0.72993996    0.94560963    -0.07180000
opls_145-165    C    0.40589990    0.71514002    0.00965973    -0.07200000
opls_700-166    C    0.04970990    0.53356997    0.50553920    0.08360000
opls_145-167    C    0.08262995    0.53685991    0.71855952    -0.10520000
opls_145-168    C    0.12096021    0.55977996    0.74274985    -0.10620000
opls_145-169    C    0.12406999    0.58120997    0.56216984    0.24150000
opls_145-170    C    0.09291015    0.57746001    0.34434995    -0.10700000
opls_145-171    C    0.05626996    0.55356993    0.31670029    -0.08980000
opls_700-172    C    0.41145994    0.69665009    0.21343915    0.01920000
opls_145-173    C    0.19926030    0.65780991    0.87219030    -0.10480000
opls_145-174    C    0.22448022    0.68233994    0.98785048    -0.10480000
opls_700-175    C    0.22661005    0.71064992    0.87471039    0.08510000
opls_145-176    C    0.20165014    0.71374994    0.64173968    -0.07400000
opls_145-177    C    0.17458011    0.68924989    0.52758906    -0.08970000
opls_141-178    C    0.24073981    0.76443998    0.00630021    -0.02090000
opls_232-179    C    0.45807992    0.32337008    0.25852980    0.27500000
opls_278-180    O    0.45338016    0.65222006    0.35639075    -0.28290000
opls_278-181    O    0.54662024    0.65222006    0.64360925    -0.28290000
opls_278-182    O    0.54662024    0.34777994    0.64360925    -0.28290000
opls_278-183    O    0.45338016    0.34777994    0.35639075    -0.28280000
opls_278-184    O    0.95338016    0.15222006    0.35639075    -0.28290000
opls_278-185    O    0.04662024    0.15222006    0.64360925    -0.28290000
opls_278-186    O    0.04662024    0.84777994    0.64360925    -0.28290000
opls_278-187    O    0.95338016    0.84777994    0.35639075    -0.28290000
opls_144-188    H    0.62237990    0.86303991    0.34297049    0.03020000
opls_146-189    H    0.87601996    0.81746992    0.53993997    0.05110000
opls_146-190    H    0.79004996    0.78814992    0.43501957    0.05110000
opls_146-191    H    0.85221004    0.75568992    0.77671933    0.05110000
opls_146-192    H    0.94109003    0.78190990    0.89638954    0.05110000
opls_146-193    H    0.57807995    0.97932011    0.87345034    0.05110000
opls_146-194    H    0.64999996    0.93888994    0.91059933    0.05120000
opls_146-195    H    0.59763015    0.90611007    0.19126988    0.05110000
opls_146-196    H    0.53150018    0.94962005    0.13831956    0.05120000
opls_146-197    H    0.69860016    0.86502995    0.96724958    0.05110000
opls_146-198    H    0.74391028    0.82029006    0.17776942    0.05110000
opls_146-199    H    0.70340016    0.76360989    0.54445082    0.05110000
opls_146-200    H    0.65247987    0.80762010    0.34315050    0.05110000
opls_144-201    H    0.99643018    0.18282995    0.20004919    0.13270000
opls_144-202    H    0.37762010    0.86303991    0.65702951    0.03020000
opls_146-203    H    0.12398004    0.81746992    0.46006003    0.05110000
opls_146-204    H    0.20995004    0.78814992    0.56498043    0.05120000
opls_146-205    H    0.14778996    0.75568992    0.22328067    0.05110000
opls_146-206    H    0.05890997    0.78190990    0.10361046    0.05110000
opls_146-207    H    0.42192005    0.97932011    0.12654966    0.05110000
opls_146-208    H    0.35000004    0.93888994    0.08940067    0.05110000
opls_146-209    H    0.40237025    0.90611007    0.80873012    0.05110000
opls_146-210    H    0.46850022    0.94962005    0.86168044    0.05110000
opls_146-211    H    0.30139984    0.86502995    0.03275042    0.05110000
opls_146-212    H    0.25609012    0.82029006    0.82223058    0.05110000
opls_146-213    H    0.29659984    0.76360989    0.45554918    0.05110000
opls_146-214    H    0.34752013    0.80762010    0.65684950    0.05110000
opls_144-215    H    0.00357022    0.18282995    0.79995081    0.13260000
opls_144-216    H    0.37762010    0.13696009    0.65702951    0.03020000
opls_146-217    H    0.12398004    0.18253008    0.46006003    0.05110000
opls_146-218    H    0.20995004    0.21185008    0.56498043    0.05110000
opls_146-219    H    0.14778996    0.24431008    0.22328067    0.05110000
opls_146-220    H    0.05890997    0.21809010    0.10361046    0.05120000
opls_146-221    H    0.42192005    0.02067989    0.12654966    0.05110000
opls_146-222    H    0.35000004    0.06111006    0.08940067    0.05110000
opls_146-223    H    0.40237025    0.09388993    0.80873012    0.05110000
opls_146-224    H    0.46850022    0.05037995    0.86168044    0.05110000
opls_146-225    H    0.30139984    0.13497005    0.03275042    0.05110000
opls_146-226    H    0.25609012    0.17970994    0.82223058    0.05110000
opls_146-227    H    0.29659984    0.23639011    0.45554918    0.05110000
opls_146-228    H    0.34752013    0.19237990    0.65684950    0.05110000
opls_144-229    H    0.00357022    0.81717005    0.79995081    0.13260000
opls_144-230    H    0.62237990    0.13696009    0.34297049    0.03020000
opls_146-231    H    0.87601996    0.18253008    0.53993997    0.05110000
opls_146-232    H    0.79004996    0.21185008    0.43501957    0.05110000
opls_146-233    H    0.85221004    0.24431008    0.77671933    0.05110000
opls_146-234    H    0.94109003    0.21809010    0.89638954    0.05110000
opls_146-235    H    0.57807995    0.02067989    0.87345034    0.05110000
opls_146-236    H    0.64999996    0.06111006    0.91059933    0.05110000
opls_146-237    H    0.59763015    0.09388993    0.19126988    0.05110000
opls_146-238    H    0.53150018    0.05037995    0.13831956    0.05120000
opls_146-239    H    0.69860016    0.13497005    0.96724958    0.05110000
opls_146-240    H    0.74391028    0.17970994    0.17776942    0.05110000
opls_146-241    H    0.70340016    0.23639011    0.54445082    0.05110000
opls_146-242    H    0.65247987    0.19237990    0.34315050    0.05110000
opls_144-243    H    0.99643018    0.81717005    0.20004919    0.13260000
opls_144-244    H    0.12237990    0.36303991    0.34297049    0.03020000
opls_146-245    H    0.37601996    0.31746992    0.53993997    0.05110000
opls_146-246    H    0.29004996    0.28814992    0.43501957    0.05110000
opls_146-247    H    0.35221004    0.25568992    0.77671933    0.05110000
opls_146-248    H    0.44109003    0.28190990    0.89638954    0.05110000
opls_146-249    H    0.07807995    0.47932011    0.87345034    0.05120000
opls_146-250    H    0.14999996    0.43888994    0.91059933    0.05110000
opls_146-251    H    0.09763015    0.40611007    0.19126988    0.05110000
opls_146-252    H    0.03150018    0.44962005    0.13831956    0.05110000
opls_146-253    H    0.19860016    0.36502995    0.96724958    0.05110000
opls_146-254    H    0.24391028    0.32029006    0.17776942    0.05110000
opls_146-255    H    0.20340016    0.26360989    0.54445082    0.05110000
opls_146-256    H    0.15247987    0.30762010    0.34315050    0.05110000
opls_144-257    H    0.49643018    0.68282995    0.20004919    0.13260000
opls_144-258    H    0.87762010    0.36303991    0.65702951    0.03020000
opls_146-259    H    0.62398004    0.31746992    0.46006003    0.05110000
opls_146-260    H    0.70995004    0.28814992    0.56498043    0.05110000
opls_146-261    H    0.64778996    0.25568992    0.22328067    0.05110000
opls_146-262    H    0.55890997    0.28190990    0.10361046    0.05110000
opls_146-263    H    0.92192005    0.47932011    0.12654966    0.05110000
opls_146-264    H    0.85000004    0.43888994    0.08940067    0.05110000
opls_146-265    H    0.90237025    0.40611007    0.80873012    0.05120000
opls_146-266    H    0.96850022    0.44962005    0.86168044    0.05110000
opls_146-267    H    0.80139984    0.36502995    0.03275042    0.05110000
opls_146-268    H    0.75609012    0.32029006    0.82223058    0.05110000
opls_146-269    H    0.79659984    0.26360989    0.45554918    0.05110000
opls_146-270    H    0.84752013    0.30762010    0.65684950    0.05110000
opls_144-271    H    0.50357022    0.68282995    0.79995081    0.13260000
opls_144-272    H    0.87762010    0.63696009    0.65702951    0.03020000
opls_146-273    H    0.62398004    0.68253008    0.46006003    0.05110000
opls_146-274    H    0.70995004    0.71185008    0.56498043    0.05110000
opls_146-275    H    0.64778996    0.74431008    0.22328067    0.05110000
opls_146-276    H    0.55890997    0.71809010    0.10361046    0.05110000
opls_146-277    H    0.92192005    0.52067989    0.12654966    0.05110000
opls_146-278    H    0.85000004    0.56111006    0.08940067    0.05110000
opls_146-279    H    0.90237025    0.59388993    0.80873012    0.05110000
opls_146-280    H    0.96850022    0.55037995    0.86168044    0.05110000
opls_146-281    H    0.80139984    0.63497005    0.03275042    0.05110000
opls_146-282    H    0.75609012    0.67970994    0.82223058    0.05110000
opls_146-283    H    0.79659984    0.73639011    0.45554918    0.05120000
opls_146-284    H    0.84752013    0.69237990    0.65684950    0.05110000
opls_144-285    H    0.50357022    0.31717005    0.79995081    0.13260000
opls_144-286    H    0.12237990    0.63696009    0.34297049    0.03020000
opls_146-287    H    0.37601996    0.68253008    0.53993997    0.05110000
opls_146-288    H    0.29004996    0.71185008    0.43501957    0.05110000
opls_146-289    H    0.35221004    0.74431008    0.77671933    0.05110000
opls_146-290    H    0.44109003    0.71809010    0.89638954    0.05120000
opls_146-291    H    0.07807995    0.52067989    0.87345034    0.05110000
opls_146-292    H    0.14999996    0.56111006    0.91059933    0.05110000
opls_146-293    H    0.09763015    0.59388993    0.19126988    0.05110000
opls_146-294    H    0.03150018    0.55037995    0.13831956    0.05110000
opls_146-295    H    0.19860016    0.63497005    0.96724958    0.05110000
opls_146-296    H    0.24391028    0.67970994    0.17776942    0.05110000
opls_146-297    H    0.20340016    0.73639011    0.54445082    0.05110000
opls_146-298    H    0.15247987    0.69237990    0.34315050    0.05110000
opls_144-299    H    0.49643018    0.31717005    0.20004919    0.13260000
