#======================================================================
# Crystal Data Generated By AuToFF
#----------------------------------------------------------------------

data_AuToFF_phase_1

_cell_length_a                         22.6875
_cell_length_b                         22.6852
_cell_length_c                         3.7839
_cell_angle_alpha                      90.19
_cell_angle_beta                       90.01
_cell_angle_gamma                      59.99
_symmetry_space_group_name_H-M_alt     'P 1'
_symmetry_space_group_IT_number        1

loop_
_space_group_symop_operation_xyz
   'x, y, z'

loop_
   _atom_site_label
   _atom_site_type_symbol
   _atom_site_fract_x
   _atom_site_fract_y
   _atom_site_fract_z
   _atom_site_charge
opls_700-0    C    0.02575014    0.04528008    0.00000000    0.05720000
opls_145-1    C    0.95536972    0.07052012    0.00000000    -0.16960000
opls_700-2    C    0.92915000    0.02603010    0.00000000    0.05720000
opls_145-3    C    0.97428988    0.95564997    0.00000000    -0.17690000
opls_700-4    C    0.04499994    0.92939995    0.00000000    0.05720000
opls_145-5    C    0.07022990    0.97454004    0.00000000    -0.16960000
opls_142-6    C    0.04875017    0.09494975    0.00000000    0.08180000
opls_142-7    C    0.85647004    0.04899975    0.00000000    0.08240000
opls_142-8    C    0.09470996    0.85668987    0.00000000    0.08180000
opls_145-9    C    0.73942969    0.13384015    0.00000000    0.21860000
opls_145-10    C    0.69739006    0.20522974    0.00000000    -0.22830000
opls_700-11    C    0.70669003    0.09407977    0.00000000    0.08510000
opls_700-12    C    0.62656002    0.23980996    0.00000000    0.08510000
opls_145-13    C    0.63586994    0.12864981    0.00000000    -0.21810000
opls_145-14    C    0.59384018    0.20003991    0.00000000    0.21860000
opls_145-15    C    0.13366006    0.12701981    0.00000000    0.21860000
opls_145-16    C    0.20505017    0.09764979    0.00000000    -0.22830000
opls_700-17    C    0.09390000    0.19952984    0.00000000    0.08570000
opls_700-18    C    0.23962004    0.13390022    0.00000000    0.07910000
opls_145-19    C    0.12849019    0.23575990    0.00000000    -0.22830000
opls_145-20    C    0.19987013    0.20641992    0.00000000    0.21860000
opls_145-21    C    0.12689979    0.73965012    0.00000000    0.21860000
opls_145-22    C    0.09755995    0.69761985    0.00000000    -0.22670000
opls_700-23    C    0.19940970    0.70688010    0.00000000    0.08170000
opls_700-24    C    0.13380996    0.62676986    0.00000000    0.07910000
opls_145-25    C    0.23566984    0.63603011    0.00000000    -0.22830000
opls_145-26    C    0.20632006    0.59401003    0.00000000    0.21860000
opls_145-27    C    0.37798007    0.26323980    0.00000000    -0.16960000
opls_142-28    C    0.47681996    0.28484976    0.00000000    0.08180000
opls_145-29    C    0.35891991    0.37815017    0.00000000    -0.16960000
opls_700-30    C    0.28822010    0.40431975    0.00000000    0.05720000
opls_142-31    C    0.23847968    0.47699013    0.00000000    0.08180000
opls_142-32    C    0.28470012    0.23861978    0.00000000    0.08300000
opls_700-33    C    0.30762003    0.28838974    0.00000000    0.05750000
opls_145-34    C    0.26307022    0.35909974    0.00000000    -0.16670000
opls_700-35    C    0.40415016    0.30777971    0.00000000    0.05750000
opls_148-36    C    0.31619982    0.09328005    0.00000000    -0.42860000
opls_148-37    C    0.59058990    0.31638989    0.00000000    -0.43070000
opls_148-38    C    0.09317999    0.59084014    0.00000000    -0.42860000
opls_148-39    C    0.01732985    0.24021008    0.00000000    -0.43090000
opls_148-40    C    0.74267029    0.01749984    0.00000000    -0.43080000
opls_148-41    C    0.24005000    0.74282001    0.00000000    -0.42830000
opls_144-42    H    0.00633006    0.14737020    0.99977008    0.07860000
opls_144-43    H    0.84651978    0.00657013    0.00034092    0.07400000
opls_144-44    H    0.14710006    0.84676976    0.99983086    0.09540000
opls_144-45    H    0.18607992    0.48691986    0.00010043    0.08540000
opls_144-46    H    0.32721018    0.18623980    0.99987050    0.09540000
opls_144-47    H    0.48670015    0.32734990    0.00002114    0.08280000
opls_702-48    H    0.33346990    0.03865978    0.00067920    0.12740000
opls_702-49    H    0.33836009    0.10372997    0.76674939    0.12290000
opls_702-50    H    0.33821009    0.10424008    0.23261899    0.12550000
opls_702-51    H    0.55774993    0.33867976    0.23299955    0.12550000
opls_702-52    H    0.62795008    0.33362999    0.99983086    0.12510000
opls_702-53    H    0.55786999    0.33833002    0.76714052    0.12180000
opls_702-54    H    0.10370982    0.55830988    0.23325061    0.12550000
opls_702-55    H    0.03857990    0.62824987    0.99954015    0.12740000
opls_702-56    H    0.10399006    0.55783988    0.76723038    0.12550000
opls_702-57    H    0.99515019    0.22967991    0.23280927    0.12130000
opls_702-58    H    0.00017016    0.29480971    0.00035942    0.12510000
opls_702-59    H    0.99531977    0.22944003    0.76682074    0.12140000
opls_702-60    H    0.70529978    0.00026009    0.99923887    0.12510000
opls_702-61    H    0.77564011    0.99525000    0.76744973    0.12180000
opls_702-62    H    0.77525029    0.99559977    0.23334047    0.12130000
opls_702-63    H    0.29466020    0.70542973    0.00059991    0.12740000
opls_702-64    H    0.22952967    0.77534010    0.76677053    0.12180000
opls_702-65    H    0.22921022    0.77584970    0.23264013    0.12180000
opls_146-66    H    0.23440004    0.04211989    0.00005021    0.10720000
opls_146-67    H    0.60970011    0.09930016    0.00001057    0.10720000
opls_146-68    H    0.29118999    0.60984984    0.00000000    0.10850000
opls_146-69    H    0.09917004    0.29130001    0.99998943    0.10770000
opls_146-70    H    0.72354001    0.23459006    0.99994979    0.10840000
opls_146-71    H    0.04202964    0.72383015    0.99998943    0.10790000
opls_146-72    H    0.95479978    0.92033009    0.00000000    0.10820000
opls_146-73    H    0.12502989    0.95506966    0.00002114    0.10770000
opls_146-74    H    0.92004990    0.12533024    0.99997886    0.10790000
opls_146-75    H    0.41337988    0.20843986    0.00001057    0.10820000
opls_146-76    H    0.37831979    0.41354998    0.00001057    0.10560000
opls_146-77    H    0.20826982    0.37854009    0.99997886    0.10820000
opls_750-78    N    0.80910983    0.11209020    0.00000000    -0.28790000
opls_750-79    N    0.07898993    0.80935015    0.00000000    -0.28570000
opls_750-80    N    0.11185994    0.07913998    0.00000000    -0.28790000
opls_750-81    N    0.22163011    0.25432978    0.00000000    -0.28880000
opls_750-82    N    0.52416973    0.22178019    0.00000000    -0.28670000
opls_750-83    N    0.25420985    0.52432985    0.00000000    -0.28680000
