#======================================================================
# Crystal Data Generated By AuToFF
#----------------------------------------------------------------------

data_AuToFF_phase_1

_cell_length_a                         32.8049
_cell_length_b                         32.8049
_cell_length_c                         6.1243
_cell_angle_alpha                      90.00
_cell_angle_beta                       90.00
_cell_angle_gamma                      120.00
_symmetry_space_group_name_H-M_alt     'P 1'
_symmetry_space_group_IT_number        1

loop_
_space_group_symop_operation_xyz
   'x, y, z'

loop_
   _atom_site_label
   _atom_site_type_symbol
   _atom_site_fract_x
   _atom_site_fract_y
   _atom_site_fract_z
   _atom_site_charge
opls_642-0    C    0.33099992    0.70699982    0.75000082    0.55140000
opls_166-1    C    0.46470006    0.70930007    0.75000082    0.36720000
opls_145-2    C    0.30000008    0.80199987    0.75000082    -0.20880000
opls_145-3    C    0.26359985    0.81239977    0.75000082    -0.11380000
opls_700-4    C    0.21649989    0.77599976    0.75000082    0.05800000
opls_145-5    C    0.20670002    0.72929981    0.75000082    -0.11970000
opls_145-6    C    0.24309997    0.71879994    0.75000082    -0.21470000
opls_142-7    C    0.21409988    0.39129979    0.75000082    0.01250000
opls_642-8    C    0.00210001    0.95959997    0.75000082    0.55660000
opls_166-9    C    0.86899989    0.95789986    0.75000082    0.36720000
opls_145-10    C    0.03279990    0.86449996    0.75000082    -0.21570000
opls_145-11    C    0.06920013    0.85410005    0.75000082    -0.11440000
opls_700-12    C    0.11630009    0.89050007    0.75000082    0.05780000
opls_145-13    C    0.12619993    0.93729998    0.75000082    -0.11560000
opls_145-14    C    0.08979999    0.94779985    0.75000082    -0.22210000
opls_142-15    C    0.11940002    0.27490014    0.75000082    0.01320000
opls_642-16    C    0.29300000    0.62399982    0.75000082    0.55140000
opls_166-17    C    0.29069983    0.75539988    0.75000082    0.36720000
opls_145-18    C    0.19799999    0.49799999    0.75000082    -0.20880000
opls_145-19    C    0.18759992    0.45120008    0.75000082    -0.11540000
opls_700-20    C    0.22400001    0.44049992    0.75000082    0.05800000
opls_145-21    C    0.27070016    0.47740012    0.75000082    -0.11970000
opls_145-22    C    0.28119990    0.52430000    0.75000082    -0.21470000
opls_142-23    C    0.60870011    0.82280003    0.75000082    0.01250000
opls_642-24    C    0.04039988    0.04250000    0.75000082    0.55660000
opls_166-25    C    0.04209985    0.91109994    0.75000082    0.36720000
opls_145-26    C    0.13549990    0.16829990    0.75000082    -0.21570000
opls_145-27    C    0.14589997    0.21509982    0.75000082    -0.11440000
opls_700-28    C    0.10949988    0.22579997    0.75000082    0.05780000
opls_145-29    C    0.06269993    0.18890013    0.75000082    -0.11560000
opls_145-30    C    0.05220001    0.14199990    0.75000082    -0.22210000
opls_142-31    C    0.72509981    0.84449987    0.75000082    0.01320000
opls_642-32    C    0.37599990    0.66900001    0.75000082    0.55140000
opls_166-33    C    0.24460011    0.53530004    0.75000082    0.36720000
opls_145-34    C    0.50199975    0.69999979    0.75000082    -0.20880000
opls_145-35    C    0.54879975    0.73639980    0.75000082    -0.11380000
opls_700-36    C    0.55949992    0.78349997    0.75000082    0.05800000
opls_145-37    C    0.52260013    0.79330008    0.75000082    -0.11970000
opls_145-38    C    0.47570014    0.75690006    0.75000082    -0.21470000
opls_142-39    C    0.17719983    0.78589983    0.75000082    0.01250000
opls_642-40    C    0.95750011    0.99790003    0.75000082    0.55660000
opls_166-41    C    0.08889978    0.13099985    0.75000082    0.36720000
opls_145-42    C    0.83170003    0.96719979    0.75000082    -0.21570000
opls_145-43    C    0.78490002    0.93079978    0.75000082    -0.11440000
opls_700-44    C    0.77420003    0.88369997    0.75000082    0.05780000
opls_145-45    C    0.81109984    0.87379989    0.75000082    -0.11560000
opls_145-46    C    0.85799982    0.91019990    0.75000082    -0.22210000
opls_142-47    C    0.15549986    0.88059999    0.75000082    0.01320000
opls_642-48    C    0.66899991    0.29299983    0.24999918    0.55140000
opls_166-49    C    0.53529994    0.29069993    0.24999918    0.36720000
opls_145-50    C    0.69999992    0.19800013    0.24999918    -0.20880000
opls_145-51    C    0.73639998    0.18759988    0.24999918    -0.11540000
opls_700-52    C    0.78349993    0.22399989    0.24999918    0.05800000
opls_145-53    C    0.79329980    0.27069984    0.24999918    -0.11970000
opls_145-54    C    0.75690003    0.28120006    0.24999918    -0.21470000
opls_142-55    C    0.78589994    0.60869986    0.24999918    0.01250000
opls_642-56    C    0.99789999    0.04040003    0.24999918    0.55660000
opls_166-57    C    0.13100011    0.04210014    0.24999918    0.36720000
opls_145-58    C    0.96720010    0.13550004    0.24999918    -0.21570000
opls_145-59    C    0.93079987    0.14589995    0.24999918    -0.11440000
opls_700-60    C    0.88369991    0.10949993    0.24999918    0.05780000
opls_145-61    C    0.87380007    0.06270002    0.24999918    -0.11560000
opls_145-62    C    0.91020001    0.05220015    0.24999918    -0.22210000
opls_142-63    C    0.88059998    0.72509986    0.24999918    0.01320000
opls_642-64    C    0.70699982    0.37599983    0.24999918    0.55140000
opls_166-65    C    0.70930017    0.24460012    0.24999918    0.36720000
opls_145-66    C    0.80200001    0.50200001    0.24999918    -0.20880000
opls_145-67    C    0.81240008    0.54879992    0.24999918    -0.11380000
opls_700-68    C    0.77599999    0.55950008    0.24999918    0.05800000
opls_145-69    C    0.72929984    0.52259988    0.24999918    -0.11970000
opls_145-70    C    0.71880010    0.47570000    0.24999918    -0.21470000
opls_142-71    C    0.39129989    0.17719997    0.24999918    0.01250000
opls_642-72    C    0.95960012    0.95750000    0.24999918    0.55660000
opls_166-73    C    0.95790015    0.08890006    0.24999918    0.36720000
opls_145-74    C    0.86449992    0.83169975    0.24999918    -0.21570000
opls_145-75    C    0.85409985    0.78489983    0.24999918    -0.11440000
opls_700-76    C    0.89050012    0.77420003    0.24999918    0.05780000
opls_145-77    C    0.93730007    0.81109987    0.24999918    -0.11560000
opls_145-78    C    0.94779981    0.85799975    0.24999918    -0.22210000
opls_142-79    C    0.27490019    0.15550013    0.24999918    0.01320000
opls_642-80    C    0.62400010    0.33099999    0.24999918    0.55140000
opls_166-81    C    0.75539989    0.46469996    0.24999918    0.36720000
opls_145-82    C    0.49800008    0.29999986    0.24999918    -0.20880000
opls_145-83    C    0.45120007    0.26359985    0.24999918    -0.11380000
opls_700-84    C    0.44050008    0.21650003    0.24999918    0.05800000
opls_145-85    C    0.47739987    0.20669992    0.24999918    -0.11970000
opls_145-86    C    0.52429986    0.24309994    0.24999918    -0.21470000
opls_142-87    C    0.82279999    0.21409981    0.24999918    0.01250000
opls_642-88    C    0.04249989    0.00209997    0.24999918    0.55660000
opls_166-89    C    0.91110004    0.86899980    0.24999918    0.36720000
opls_145-90    C    0.16829980    0.03279986    0.24999918    -0.21570000
opls_145-91    C    0.21509980    0.06919987    0.24999918    -0.11440000
opls_700-92    C    0.22579997    0.11630003    0.24999918    0.05780000
opls_145-93    C    0.18890016    0.12620011    0.24999918    -0.11560000
opls_145-94    C    0.14200018    0.08980010    0.24999918    -0.22210000
opls_142-95    C    0.84450014    0.11940001    0.24999918    0.01320000
opls_146-96    H    0.33609982    0.83069974    0.75000082    0.11770000
opls_146-97    H    0.27239972    0.84889975    0.75000082    0.12000000
opls_146-98    H    0.17050000    0.70059993    0.75000082    0.11700000
opls_146-99    H    0.23220012    0.68210003    0.75000082    0.25080000
opls_144-100    H    0.24320003    0.38450004    0.75000082    0.11000000
opls_146-101    H    0.99660016    0.83590005    0.75000082    0.11500000
opls_146-102    H    0.06029997    0.81760007    0.75000082    0.12120000
opls_146-103    H    0.16229998    0.96589989    0.75000082    0.12040000
opls_146-104    H    0.10079982    0.98449976    0.75000082    0.09190000
opls_144-105    H    0.09029987    0.28169989    0.75000082    0.11000000
opls_146-106    H    0.16929990    0.50539988    0.75000082    0.11770000
opls_146-107    H    0.15109984    0.42349985    0.75000082    0.12000000
opls_146-108    H    0.29940008    0.46989991    0.75000082    0.11710000
opls_146-109    H    0.31789991    0.55009982    0.75000082    0.25080000
opls_144-110    H    0.61549987    0.85869986    0.75000082    0.11000000
opls_146-111    H    0.16410003    0.16070008    0.75000082    0.11500000
opls_146-112    H    0.18240006    0.24270007    0.75000082    0.12120000
opls_146-113    H    0.03410012    0.19639998    0.75000082    0.12040000
opls_146-114    H    0.01549999    0.11630003    0.75000082    0.09190000
opls_144-115    H    0.71830006    0.80860004    0.75000082    0.11000000
opls_146-116    H    0.49460010    0.66390002    0.75000082    0.11770000
opls_146-117    H    0.57649996    0.72760005    0.75000082    0.12000000
opls_146-118    H    0.53010005    0.82949981    0.75000082    0.11700000
opls_146-119    H    0.44989979    0.76779979    0.75000082    0.25080000
opls_144-120    H    0.14129993    0.75679975    0.75000082    0.11000000
opls_146-121    H    0.83929981    0.00339987    0.75000082    0.11500000
opls_146-122    H    0.75729997    0.93969985    0.75000082    0.12120000
opls_146-123    H    0.80360003    0.83769977    0.75000082    0.12040000
opls_146-124    H    0.88370002    0.89919986    0.75000082    0.09190000
opls_144-125    H    0.19139989    0.90969972    0.75000082    0.11000000
opls_146-126    H    0.66390000    0.16929991    0.24999918    0.11770000
opls_146-127    H    0.72760010    0.15109990    0.24999918    0.12000000
opls_146-128    H    0.82950000    0.29940007    0.24999918    0.11700000
opls_146-129    H    0.76779988    0.31789997    0.24999918    0.25080000
opls_144-130    H    0.75679997    0.61549996    0.24999918    0.11000000
opls_146-131    H    0.00339984    0.16409995    0.24999918    0.11500000
opls_146-132    H    0.93970003    0.18239993    0.24999918    0.12120000
opls_146-133    H    0.83770002    0.03410011    0.24999918    0.12040000
opls_146-134    H    0.89920000    0.01549989    0.24999918    0.09190000
opls_144-135    H    0.90969995    0.71829976    0.24999918    0.11000000
opls_146-136    H    0.83070010    0.49460012    0.24999918    0.11770000
opls_146-137    H    0.84889998    0.57649980    0.24999918    0.12000000
opls_146-138    H    0.70059992    0.53010009    0.24999918    0.11700000
opls_146-139    H    0.68209991    0.44989982    0.24999918    0.25080000
opls_144-140    H    0.38450013    0.14130014    0.24999918    0.11000000
opls_146-141    H    0.83589997    0.83929992    0.24999918    0.11500000
opls_146-142    H    0.81759994    0.75729993    0.24999918    0.12120000
opls_146-143    H    0.96589988    0.80360002    0.24999918    0.12040000
opls_146-144    H    0.98450001    0.88369997    0.24999918    0.09190000
opls_144-145    H    0.28169994    0.19139996    0.24999918    0.11000000
opls_146-146    H    0.50539990    0.33609998    0.24999918    0.11770000
opls_146-147    H    0.42350004    0.27239995    0.24999918    0.12000000
opls_146-148    H    0.46989977    0.17049984    0.24999918    0.11700000
opls_146-149    H    0.55010003    0.23219985    0.24999918    0.25080000
opls_144-150    H    0.85869990    0.24319990    0.24999918    0.11000000
opls_146-151    H    0.16070019    0.99660013    0.24999918    0.11500000
opls_146-152    H    0.24270003    0.06030015    0.24999918    0.12120000
opls_146-153    H    0.19639979    0.16229988    0.24999918    0.12040000
opls_146-154    H    0.11629998    0.10080014    0.24999918    0.09190000
opls_144-155    H    0.80859993    0.09029992    0.24999918    0.11000000
opls_641-156    N    0.29109998    0.66429988    0.75000082    -0.51090000
opls_750-157    N    0.64370005    0.81489996    0.75000082    -0.18510000
opls_641-158    N    0.04209995    0.00209997    0.75000082    -0.51560000
opls_750-159    N    0.69009988    0.85239994    0.75000082    -0.18510000
opls_641-160    N    0.33569997    0.62679990    0.75000082    -0.51100000
opls_750-161    N    0.18510013    0.82880005    0.75000082    -0.18510000
opls_641-162    N    0.99790003    0.04000017    0.75000082    -0.51560000
opls_750-163    N    0.14759986    0.83769977    0.75000082    -0.18510000
opls_641-164    N    0.37319987    0.70889986    0.75000082    -0.51100000
opls_750-165    N    0.17120012    0.35629999    0.75000082    -0.18510000
opls_641-166    N    0.96000002    0.95789986    0.75000082    -0.51560000
opls_750-167    N    0.16230009    0.30989994    0.75000082    -0.18510000
opls_641-168    N    0.70890002    0.33570012    0.24999918    -0.51100000
opls_750-169    N    0.35629995    0.18510004    0.24999918    -0.18510000
opls_641-170    N    0.95790005    0.99790003    0.24999918    -0.51560000
opls_750-171    N    0.30990012    0.14760006    0.24999918    -0.18510000
opls_641-172    N    0.66430003    0.37320010    0.24999918    -0.51100000
opls_750-173    N    0.81489987    0.17119995    0.24999918    -0.18510000
opls_641-174    N    0.00209997    0.95999983    0.24999918    -0.51560000
opls_750-175    N    0.85239996    0.16229988    0.24999918    -0.18510000
opls_641-176    N    0.62680013    0.29110014    0.24999918    -0.51100000
opls_750-177    N    0.82879988    0.64370001    0.24999918    -0.18510000
opls_641-178    N    0.03999998    0.04210014    0.24999918    -0.51560000
opls_750-179    N    0.83769991    0.69010006    0.24999918    -0.18510000
opls_180-180    O    0.25009993    0.58099999    0.75000082    -0.26770000
opls_180-181    O    0.08339995    0.08539987    0.75000082    -0.26810000
opls_180-182    O    0.41899987    0.66909998    0.75000082    -0.26770000
opls_180-183    O    0.91460010    0.99799999    0.75000082    -0.26810000
opls_180-184    O    0.33089989    0.74990003    0.75000082    -0.26770000
opls_180-185    O    0.00199977    0.91659979    0.75000082    -0.26810000
opls_180-186    O    0.74990007    0.41900001    0.24999918    -0.26770000
opls_180-187    O    0.91659987    0.91459978    0.24999918    -0.26810000
opls_180-188    O    0.58100013    0.33090002    0.24999918    -0.26770000
opls_180-189    O    0.08539990    0.00200001    0.24999918    -0.26810000
opls_180-190    O    0.66910011    0.25009997    0.24999918    -0.26770000
opls_180-191    O    0.99800006    0.08339986    0.24999918    -0.26810000
