#======================================================================
# Crystal Data Generated By AuToFF
#----------------------------------------------------------------------

data_AuToFF_phase_1

_cell_length_a                         39.4920
_cell_length_b                         39.4920
_cell_length_c                         83.9040
_cell_angle_alpha                      90.00
_cell_angle_beta                       90.00
_cell_angle_gamma                      90.00
_symmetry_space_group_name_H-M_alt     'P 1'
_symmetry_space_group_IT_number        1

loop_
_space_group_symop_operation_xyz
   'x, y, z'

loop_
   _atom_site_label
   _atom_site_type_symbol
   _atom_site_fract_x
   _atom_site_fract_y
   _atom_site_fract_z
   _atom_site_charge
opls_700-0    C    0.50000000    0.22046997    0.63564002    0.08480000
opls_145-1    C    0.50000000    0.28266991    0.63121997    -0.08510000
opls_145-2    C    0.50000000    0.25396992    0.64160004    -0.08470000
opls_142-3    C    0.50000000    0.18853008    0.64628003    0.03620000
opls_145-4    C    0.50000000    0.15987010    0.67349995    0.21250000
opls_145-5    C    0.50000000    0.16717006    0.68990000    -0.10210000
opls_145-6    C    0.50000000    0.14158007    0.70175999    -0.08460000
opls_700-7    C    0.50000000    0.10630001    0.69815003    0.06980000
opls_145-8    C    0.50000000    0.09892003    0.68146000    -0.09680000
opls_145-9    C    0.50000000    0.12499012    0.66943996    -0.11140000
opls_700-10    C    0.50000000    0.07857009    0.71168002    0.06930000
opls_145-11    C    0.50000000    0.04252000    0.70881996    -0.06090000
opls_700-12    C    0.50000000    0.01884002    0.72185998    0.04610000
opls_700-13    C    0.50000000    0.02969006    0.73779999    0.01650000
opls_145-14    C    0.50000000    0.06441988    0.74088995    -0.08570000
opls_145-15    C    0.50000000    0.08813000    0.72817994    -0.08600000
opls_700-16    C    0.00000000    0.72046997    0.13564002    0.08480000
opls_145-17    C    0.00000000    0.78266991    0.13121997    -0.08510000
opls_145-18    C    0.00000000    0.75396992    0.14160004    -0.08470000
opls_142-19    C    0.00000000    0.68853008    0.14628003    0.03620000
opls_145-20    C    0.00000000    0.65987010    0.17349995    0.21250000
opls_145-21    C    0.00000000    0.66717006    0.18990000    -0.10210000
opls_145-22    C    0.00000000    0.64158007    0.20175999    -0.08470000
opls_700-23    C    0.00000000    0.60630001    0.19815003    0.06980000
opls_145-24    C    0.00000000    0.59892003    0.18146000    -0.09680000
opls_145-25    C    0.00000000    0.62499012    0.16943996    -0.11130000
opls_700-26    C    0.00000000    0.57857009    0.21168002    0.06930000
opls_145-27    C    0.00000000    0.54252000    0.20881996    -0.06090000
opls_700-28    C    0.00000000    0.51884002    0.22185998    0.04610000
opls_700-29    C    0.00000000    0.52969006    0.23779999    0.01650000
opls_145-30    C    0.00000000    0.56441988    0.24088995    -0.08570000
opls_145-31    C    0.00000000    0.58813000    0.22817994    -0.08600000
opls_700-32    C    0.00000000    0.27953003    0.13564002    0.08480000
opls_145-33    C    0.00000000    0.21733009    0.13121997    -0.08500000
opls_145-34    C    0.00000000    0.24603008    0.14160004    -0.08470000
opls_142-35    C    0.00000000    0.31146992    0.14628003    0.03620000
opls_145-36    C    0.00000000    0.34012990    0.17349995    0.21250000
opls_145-37    C    0.00000000    0.33282994    0.18990000    -0.10210000
opls_145-38    C    0.00000000    0.35841993    0.20175999    -0.08470000
opls_700-39    C    0.00000000    0.39369999    0.19815003    0.06980000
opls_145-40    C    0.00000000    0.40107997    0.18146000    -0.09670000
opls_145-41    C    0.00000000    0.37500988    0.16943996    -0.11140000
opls_700-42    C    0.00000000    0.42142991    0.21168002    0.06930000
opls_145-43    C    0.00000000    0.45748000    0.20881996    -0.06080000
opls_700-44    C    0.00000000    0.48115998    0.22185998    0.04610000
opls_700-45    C    0.00000000    0.47030994    0.23779999    0.01650000
opls_145-46    C    0.00000000    0.43558012    0.24088995    -0.08570000
opls_145-47    C    0.00000000    0.41187000    0.22817994    -0.08600000
opls_700-48    C    0.50000000    0.77953003    0.63564002    0.08480000
opls_145-49    C    0.50000000    0.71733009    0.63121997    -0.08500000
opls_145-50    C    0.50000000    0.74603008    0.64160004    -0.08470000
opls_142-51    C    0.50000000    0.81146992    0.64628003    0.03620000
opls_145-52    C    0.50000000    0.84012990    0.67349995    0.21260000
opls_145-53    C    0.50000000    0.83282994    0.68990000    -0.10210000
opls_145-54    C    0.50000000    0.85841993    0.70175999    -0.08470000
opls_700-55    C    0.50000000    0.89369999    0.69815003    0.06980000
opls_145-56    C    0.50000000    0.90107997    0.68146000    -0.09680000
opls_145-57    C    0.50000000    0.87500988    0.66943996    -0.11140000
opls_700-58    C    0.50000000    0.92142991    0.71168002    0.06930000
opls_145-59    C    0.50000000    0.95748000    0.70881996    -0.06080000
opls_700-60    C    0.50000000    0.98115998    0.72185998    0.04620000
opls_700-61    C    0.50000000    0.97030994    0.73779999    0.01650000
opls_145-62    C    0.50000000    0.93558012    0.74088995    -0.08570000
opls_145-63    C    0.50000000    0.91187000    0.72817994    -0.08600000
opls_700-64    C    0.77953003    0.00000000    0.88564002    0.08480000
opls_145-65    C    0.71733009    0.00000000    0.88121997    -0.08510000
opls_145-66    C    0.74603008    0.00000000    0.89160004    -0.08470000
opls_142-67    C    0.81146992    0.00000000    0.89628003    0.03620000
opls_145-68    C    0.84012990    0.00000000    0.92349995    0.21250000
opls_145-69    C    0.83282994    0.00000000    0.93990000    -0.10220000
opls_145-70    C    0.85841993    0.00000000    0.95175999    -0.08470000
opls_700-71    C    0.89369999    0.00000000    0.94815003    0.06980000
opls_145-72    C    0.90107997    0.00000000    0.93146000    -0.09680000
opls_145-73    C    0.87500988    0.00000000    0.91943996    -0.11140000
opls_700-74    C    0.92142991    0.00000000    0.96168002    0.06930000
opls_145-75    C    0.95748000    0.00000000    0.95881996    -0.06090000
opls_700-76    C    0.98115998    0.00000000    0.97185998    0.04610000
opls_700-77    C    0.97030994    0.00000000    0.98779999    0.01650000
opls_145-78    C    0.93558012    0.00000000    0.99088995    -0.08570000
opls_145-79    C    0.91187000    0.00000000    0.97817994    -0.08590000
opls_700-80    C    0.27953003    0.50000000    0.38564002    0.08490000
opls_145-81    C    0.21733009    0.50000000    0.38121997    -0.08510000
opls_145-82    C    0.24603008    0.50000000    0.39160004    -0.08470000
opls_142-83    C    0.31146992    0.50000000    0.39628003    0.03620000
opls_145-84    C    0.34012990    0.50000000    0.42349995    0.21250000
opls_145-85    C    0.33282994    0.50000000    0.43990000    -0.10220000
opls_145-86    C    0.35841993    0.50000000    0.45175999    -0.08470000
opls_700-87    C    0.39369999    0.50000000    0.44815003    0.06980000
opls_145-88    C    0.40107997    0.50000000    0.43146000    -0.09680000
opls_145-89    C    0.37500988    0.50000000    0.41943996    -0.11140000
opls_700-90    C    0.42142991    0.50000000    0.46168002    0.06930000
opls_145-91    C    0.45748000    0.50000000    0.45881996    -0.06090000
opls_700-92    C    0.48115998    0.50000000    0.47185998    0.04620000
opls_700-93    C    0.47030994    0.50000000    0.48779999    0.01650000
opls_145-94    C    0.43558012    0.50000000    0.49088995    -0.08570000
opls_145-95    C    0.41187000    0.50000000    0.47817994    -0.08600000
opls_700-96    C    0.72046997    0.50000000    0.38564002    0.08490000
opls_145-97    C    0.78266991    0.50000000    0.38121997    -0.08510000
opls_145-98    C    0.75396992    0.50000000    0.39160004    -0.08470000
opls_142-99    C    0.68853008    0.50000000    0.39628003    0.03620000
opls_145-100    C    0.65987010    0.50000000    0.42349995    0.21260000
opls_145-101    C    0.66717006    0.50000000    0.43990000    -0.10220000
opls_145-102    C    0.64158007    0.50000000    0.45175999    -0.08470000
opls_700-103    C    0.60630001    0.50000000    0.44815003    0.06980000
opls_145-104    C    0.59892003    0.50000000    0.43146000    -0.09680000
opls_145-105    C    0.62499012    0.50000000    0.41943996    -0.11140000
opls_700-106    C    0.57857009    0.50000000    0.46168002    0.06930000
opls_145-107    C    0.54252000    0.50000000    0.45881996    -0.06090000
opls_700-108    C    0.51884002    0.50000000    0.47185998    0.04610000
opls_700-109    C    0.52969006    0.50000000    0.48779999    0.01650000
opls_145-110    C    0.56441988    0.50000000    0.49088995    -0.08570000
opls_145-111    C    0.58813000    0.50000000    0.47817994    -0.08600000
opls_700-112    C    0.00000000    0.22046997    0.11435998    0.08480000
opls_145-113    C    0.00000000    0.28266991    0.11878003    -0.08510000
opls_145-114    C    0.00000000    0.25396992    0.10839996    -0.08470000
opls_142-115    C    0.00000000    0.18853008    0.10371997    0.03620000
opls_145-116    C    0.00000000    0.15987010    0.07650005    0.21250000
opls_145-117    C    0.00000000    0.16717006    0.06010000    -0.10220000
opls_145-118    C    0.00000000    0.14158007    0.04824001    -0.08470000
opls_700-119    C    0.00000000    0.10630001    0.05184997    0.06990000
opls_145-120    C    0.00000000    0.09892003    0.06854000    -0.09680000
opls_145-121    C    0.00000000    0.12499012    0.08056004    -0.11140000
opls_700-122    C    0.00000000    0.07857009    0.03831998    0.06930000
opls_145-123    C    0.00000000    0.04252000    0.04118004    -0.06090000
opls_700-124    C    0.00000000    0.01884002    0.02814002    0.04610000
opls_700-125    C    0.00000000    0.02969006    0.01220001    0.01650000
opls_145-126    C    0.00000000    0.06441988    0.00911005    -0.08570000
opls_145-127    C    0.00000000    0.08813000    0.02182006    -0.08600000
opls_700-128    C    0.50000000    0.72046997    0.61435998    0.08480000
opls_145-129    C    0.50000000    0.78266991    0.61878003    -0.08510000
opls_145-130    C    0.50000000    0.75396992    0.60839996    -0.08470000
opls_142-131    C    0.50000000    0.68853008    0.60371997    0.03620000
opls_145-132    C    0.50000000    0.65987010    0.57650005    0.21250000
opls_145-133    C    0.50000000    0.66717006    0.56010000    -0.10220000
opls_145-134    C    0.50000000    0.64158007    0.54824001    -0.08470000
opls_700-135    C    0.50000000    0.60630001    0.55184997    0.06980000
opls_145-136    C    0.50000000    0.59892003    0.56854000    -0.09670000
opls_145-137    C    0.50000000    0.62499012    0.58056004    -0.11130000
opls_700-138    C    0.50000000    0.57857009    0.53831998    0.06930000
opls_145-139    C    0.50000000    0.54252000    0.54118004    -0.06090000
opls_700-140    C    0.50000000    0.51884002    0.52814002    0.04610000
opls_700-141    C    0.50000000    0.52969006    0.51220001    0.01650000
opls_145-142    C    0.50000000    0.56441988    0.50911005    -0.08570000
opls_145-143    C    0.50000000    0.58813000    0.52182006    -0.08600000
opls_700-144    C    0.50000000    0.27953003    0.61435998    0.08480000
opls_145-145    C    0.50000000    0.21733009    0.61878003    -0.08510000
opls_145-146    C    0.50000000    0.24603008    0.60839996    -0.08460000
opls_142-147    C    0.50000000    0.31146992    0.60371997    0.03620000
opls_145-148    C    0.50000000    0.34012990    0.57650005    0.21250000
opls_145-149    C    0.50000000    0.33282994    0.56010000    -0.10220000
opls_145-150    C    0.50000000    0.35841993    0.54824001    -0.08470000
opls_700-151    C    0.50000000    0.39369999    0.55184997    0.06980000
opls_145-152    C    0.50000000    0.40107997    0.56854000    -0.09680000
opls_145-153    C    0.50000000    0.37500988    0.58056004    -0.11140000
opls_700-154    C    0.50000000    0.42142991    0.53831998    0.06930000
opls_145-155    C    0.50000000    0.45748000    0.54118004    -0.06090000
opls_700-156    C    0.50000000    0.48115998    0.52814002    0.04610000
opls_700-157    C    0.50000000    0.47030994    0.51220001    0.01650000
opls_145-158    C    0.50000000    0.43558012    0.50911005    -0.08560000
opls_145-159    C    0.50000000    0.41187000    0.52182006    -0.08600000
opls_700-160    C    0.00000000    0.77953003    0.11435998    0.08480000
opls_145-161    C    0.00000000    0.71733009    0.11878003    -0.08500000
opls_145-162    C    0.00000000    0.74603008    0.10839996    -0.08470000
opls_142-163    C    0.00000000    0.81146992    0.10371997    0.03620000
opls_145-164    C    0.00000000    0.84012990    0.07650005    0.21250000
opls_145-165    C    0.00000000    0.83282994    0.06010000    -0.10200000
opls_145-166    C    0.00000000    0.85841993    0.04824001    -0.08460000
opls_700-167    C    0.00000000    0.89369999    0.05184997    0.06980000
opls_145-168    C    0.00000000    0.90107997    0.06854000    -0.09680000
opls_145-169    C    0.00000000    0.87500988    0.08056004    -0.11140000
opls_700-170    C    0.00000000    0.92142991    0.03831998    0.06930000
opls_145-171    C    0.00000000    0.95748000    0.04118004    -0.06090000
opls_700-172    C    0.00000000    0.98115998    0.02814002    0.04610000
opls_700-173    C    0.00000000    0.97030994    0.01220001    0.01650000
opls_145-174    C    0.00000000    0.93558012    0.00911005    -0.08560000
opls_145-175    C    0.00000000    0.91187000    0.02182006    -0.08600000
opls_700-176    C    0.72046997    0.00000000    0.86435998    0.08490000
opls_145-177    C    0.78266991    0.00000000    0.86878003    -0.08510000
opls_145-178    C    0.75396992    0.00000000    0.85839996    -0.08460000
opls_142-179    C    0.68853008    0.00000000    0.85371997    0.03620000
opls_145-180    C    0.65987010    0.00000000    0.82650005    0.21250000
opls_145-181    C    0.66717006    0.00000000    0.81010000    -0.10220000
opls_145-182    C    0.64158007    0.00000000    0.79824001    -0.08470000
opls_700-183    C    0.60630001    0.00000000    0.80184997    0.06980000
opls_145-184    C    0.59892003    0.00000000    0.81854000    -0.09680000
opls_145-185    C    0.62499012    0.00000000    0.83056004    -0.11140000
opls_700-186    C    0.57857009    0.00000000    0.78831998    0.06930000
opls_145-187    C    0.54252000    0.00000000    0.79118004    -0.06090000
opls_700-188    C    0.51884002    0.00000000    0.77814002    0.04610000
opls_700-189    C    0.52969006    0.00000000    0.76220001    0.01650000
opls_145-190    C    0.56441988    0.00000000    0.75911005    -0.08570000
opls_145-191    C    0.58813000    0.00000000    0.77182006    -0.08600000
opls_700-192    C    0.77953003    0.50000000    0.36435998    0.08480000
opls_145-193    C    0.71733009    0.50000000    0.36878003    -0.08510000
opls_145-194    C    0.74603008    0.50000000    0.35839996    -0.08470000
opls_142-195    C    0.81146992    0.50000000    0.35371997    0.03620000
opls_145-196    C    0.84012990    0.50000000    0.32650005    0.21250000
opls_145-197    C    0.83282994    0.50000000    0.31010000    -0.10220000
opls_145-198    C    0.85841993    0.50000000    0.29824001    -0.08460000
opls_700-199    C    0.89369999    0.50000000    0.30184997    0.06980000
opls_145-200    C    0.90107997    0.50000000    0.31854000    -0.09670000
opls_145-201    C    0.87500988    0.50000000    0.33056004    -0.11140000
opls_700-202    C    0.92142991    0.50000000    0.28831998    0.06930000
opls_145-203    C    0.95748000    0.50000000    0.29118004    -0.06090000
opls_700-204    C    0.98115998    0.50000000    0.27814002    0.04610000
opls_700-205    C    0.97030994    0.50000000    0.26220001    0.01650000
opls_145-206    C    0.93558012    0.50000000    0.25911005    -0.08570000
opls_145-207    C    0.91187000    0.50000000    0.27182006    -0.08600000
opls_700-208    C    0.22046997    0.50000000    0.36435998    0.08490000
opls_145-209    C    0.28266991    0.50000000    0.36878003    -0.08500000
opls_145-210    C    0.25396992    0.50000000    0.35839996    -0.08470000
opls_142-211    C    0.18853008    0.50000000    0.35371997    0.03620000
opls_145-212    C    0.15987010    0.50000000    0.32650005    0.21250000
opls_145-213    C    0.16717006    0.50000000    0.31010000    -0.10220000
opls_145-214    C    0.14158007    0.50000000    0.29824001    -0.08470000
opls_700-215    C    0.10630001    0.50000000    0.30184997    0.06990000
opls_145-216    C    0.09892003    0.50000000    0.31854000    -0.09660000
opls_145-217    C    0.12499012    0.50000000    0.33056004    -0.11140000
opls_700-218    C    0.07857009    0.50000000    0.28831998    0.06930000
opls_145-219    C    0.04252000    0.50000000    0.29118004    -0.06090000
opls_700-220    C    0.01884002    0.50000000    0.27814002    0.04610000
opls_700-221    C    0.02969006    0.50000000    0.26220001    0.01650000
opls_145-222    C    0.06441988    0.50000000    0.25911005    -0.08570000
opls_145-223    C    0.08813000    0.50000000    0.27182006    -0.08600000
opls_700-224    C    0.27953003    0.00000000    0.86435998    0.08480000
opls_145-225    C    0.21733009    0.00000000    0.86878003    -0.08510000
opls_145-226    C    0.24603008    0.00000000    0.85839996    -0.08470000
opls_142-227    C    0.31146992    0.00000000    0.85371997    0.03620000
opls_145-228    C    0.34012990    0.00000000    0.82650005    0.21250000
opls_145-229    C    0.33282994    0.00000000    0.81010000    -0.10210000
opls_145-230    C    0.35841993    0.00000000    0.79824001    -0.08470000
opls_700-231    C    0.39369999    0.00000000    0.80184997    0.06980000
opls_145-232    C    0.40107997    0.00000000    0.81854000    -0.09670000
opls_145-233    C    0.37500988    0.00000000    0.83056004    -0.11140000
opls_700-234    C    0.42142991    0.00000000    0.78831998    0.06950000
opls_145-235    C    0.45748000    0.00000000    0.79118004    -0.06090000
opls_700-236    C    0.48115998    0.00000000    0.77814002    0.04610000
opls_700-237    C    0.47030994    0.00000000    0.76220001    0.01650000
opls_145-238    C    0.43558012    0.00000000    0.75911005    -0.08570000
opls_145-239    C    0.41187000    0.00000000    0.77182006    -0.08600000
opls_700-240    C    0.22046997    0.00000000    0.88564002    0.08480000
opls_145-241    C    0.28266991    0.00000000    0.88121997    -0.08510000
opls_145-242    C    0.25396992    0.00000000    0.89160004    -0.08470000
opls_142-243    C    0.18853008    0.00000000    0.89628003    0.03620000
opls_145-244    C    0.15987010    0.00000000    0.92349995    0.21260000
opls_145-245    C    0.16717006    0.00000000    0.93990000    -0.10210000
opls_145-246    C    0.14158007    0.00000000    0.95175999    -0.08470000
opls_700-247    C    0.10630001    0.00000000    0.94815003    0.06980000
opls_145-248    C    0.09892003    0.00000000    0.93146000    -0.09670000
opls_145-249    C    0.12499012    0.00000000    0.91943996    -0.11130000
opls_700-250    C    0.07857009    0.00000000    0.96168002    0.06930000
opls_145-251    C    0.04252000    0.00000000    0.95881996    -0.06090000
opls_700-252    C    0.01884002    0.00000000    0.97185998    0.04610000
opls_700-253    C    0.02969006    0.00000000    0.98779999    0.01650000
opls_145-254    C    0.06441988    0.00000000    0.99088995    -0.08560000
opls_145-255    C    0.08813000    0.00000000    0.97817994    -0.08600000
opls_701-256    C    0.50000000    0.00000000    0.75000000    0.03650000
opls_701-257    C    0.00000000    0.50000000    0.25000000    0.03640000
opls_701-258    C    0.00000000    0.00000000    0.00000000    0.03640000
opls_701-259    C    0.50000000    0.50000000    0.50000000    0.03640000
opls_146-260    H    0.50000000    0.30934999    0.63640994    0.04690000
opls_146-261    H    0.50000000    0.25776005    0.65506996    0.04690000
opls_146-262    H    0.50000000    0.07150005    0.67721003    0.04690000
opls_146-263    H    0.50000000    0.19459992    0.69413997    0.04690000
opls_146-264    H    0.50000000    0.11697989    0.65639004    0.04700000
opls_146-265    H    0.50000000    0.14884002    0.71491002    0.04690000
opls_146-266    H    0.50000000    0.03243999    0.69609006    0.04690000
opls_146-267    H    0.50000000    0.11644004    0.73084001    0.04690000
opls_146-268    H    0.50000000    0.07396004    0.75370995    0.04690000
opls_146-269    H    0.00000000    0.80934999    0.13640994    0.04690000
opls_146-270    H    0.00000000    0.75776005    0.15506996    0.04690000
opls_146-271    H    0.00000000    0.57150005    0.17721003    0.04690000
opls_146-272    H    0.00000000    0.69459992    0.19413997    0.04690000
opls_146-273    H    0.00000000    0.61697989    0.15639004    0.04690000
opls_146-274    H    0.00000000    0.64884002    0.21491002    0.04690000
opls_146-275    H    0.00000000    0.53243999    0.19609006    0.04700000
opls_146-276    H    0.00000000    0.61644004    0.23084001    0.04690000
opls_146-277    H    0.00000000    0.57396004    0.25370995    0.04690000
opls_146-278    H    0.00000000    0.19065001    0.13640994    0.04690000
opls_146-279    H    0.00000000    0.24223995    0.15506996    0.04690000
opls_146-280    H    0.00000000    0.42849995    0.17721003    0.04690000
opls_146-281    H    0.00000000    0.30540008    0.19413997    0.04690000
opls_146-282    H    0.00000000    0.38302011    0.15639004    0.04690000
opls_146-283    H    0.00000000    0.35115998    0.21491002    0.04690000
opls_146-284    H    0.00000000    0.46756001    0.19609006    0.04690000
opls_146-285    H    0.00000000    0.38355996    0.23084001    0.04690000
opls_146-286    H    0.00000000    0.42603996    0.25370995    0.04690000
opls_146-287    H    0.50000000    0.69065001    0.63640994    0.04700000
opls_146-288    H    0.50000000    0.74223995    0.65506996    0.04690000
opls_146-289    H    0.50000000    0.92849995    0.67721003    0.04690000
opls_146-290    H    0.50000000    0.80540008    0.69413997    0.04690000
opls_146-291    H    0.50000000    0.88302011    0.65639004    0.04690000
opls_146-292    H    0.50000000    0.85115998    0.71491002    0.04690000
opls_146-293    H    0.50000000    0.96756001    0.69609006    0.04690000
opls_146-294    H    0.50000000    0.88355996    0.73084001    0.04690000
opls_146-295    H    0.50000000    0.92603996    0.75370995    0.04690000
opls_146-296    H    0.69065001    0.00000000    0.88640994    0.04690000
opls_146-297    H    0.74223995    0.00000000    0.90506996    0.04690000
opls_146-298    H    0.92849995    0.00000000    0.92721003    0.04690000
opls_146-299    H    0.80540008    0.00000000    0.94413997    0.04690000
opls_146-300    H    0.88302011    0.00000000    0.90639004    0.04690000
opls_146-301    H    0.85115998    0.00000000    0.96491002    0.04690000
opls_146-302    H    0.96756001    0.00000000    0.94609006    0.04690000
opls_146-303    H    0.88355996    0.00000000    0.98084001    0.04690000
opls_146-304    H    0.92603996    0.00000000    0.00370995    0.04690000
opls_146-305    H    0.19065001    0.50000000    0.38640994    0.04690000
opls_146-306    H    0.24223995    0.50000000    0.40506996    0.04690000
opls_146-307    H    0.42849995    0.50000000    0.42721003    0.04690000
opls_146-308    H    0.30540008    0.50000000    0.44413997    0.04690000
opls_146-309    H    0.38302011    0.50000000    0.40639004    0.04690000
opls_146-310    H    0.35115998    0.50000000    0.46491002    0.04690000
opls_146-311    H    0.46756001    0.50000000    0.44609006    0.04690000
opls_146-312    H    0.38355996    0.50000000    0.48084001    0.04690000
opls_146-313    H    0.42603996    0.50000000    0.50370995    0.04690000
opls_146-314    H    0.80934999    0.50000000    0.38640994    0.04690000
opls_146-315    H    0.75776005    0.50000000    0.40506996    0.04690000
opls_146-316    H    0.57150005    0.50000000    0.42721003    0.04690000
opls_146-317    H    0.69459992    0.50000000    0.44413997    0.04690000
opls_146-318    H    0.61697989    0.50000000    0.40639004    0.04690000
opls_146-319    H    0.64884002    0.50000000    0.46491002    0.04690000
opls_146-320    H    0.53243999    0.50000000    0.44609006    0.04690000
opls_146-321    H    0.61644004    0.50000000    0.48084001    0.04690000
opls_146-322    H    0.57396004    0.50000000    0.50370995    0.04690000
opls_146-323    H    0.00000000    0.30934999    0.11359006    0.04690000
opls_146-324    H    0.00000000    0.25776005    0.09493004    0.04690000
opls_146-325    H    0.00000000    0.07150005    0.07278997    0.04690000
opls_146-326    H    0.00000000    0.19459992    0.05586003    0.04690000
opls_146-327    H    0.00000000    0.11697989    0.09360996    0.04700000
opls_146-328    H    0.00000000    0.14884002    0.03508998    0.04690000
opls_146-329    H    0.00000000    0.03243999    0.05390994    0.04690000
opls_146-330    H    0.00000000    0.11644004    0.01915999    0.04700000
opls_146-331    H    0.00000000    0.07396004    0.99629005    0.04700000
opls_146-332    H    0.50000000    0.80934999    0.61359006    0.04690000
opls_146-333    H    0.50000000    0.75776005    0.59493004    0.04690000
opls_146-334    H    0.50000000    0.57150005    0.57278997    0.04690000
opls_146-335    H    0.50000000    0.69459992    0.55586003    0.04690000
opls_146-336    H    0.50000000    0.61697989    0.59360996    0.04690000
opls_146-337    H    0.50000000    0.64884002    0.53508998    0.04690000
opls_146-338    H    0.50000000    0.53243999    0.55390994    0.04690000
opls_146-339    H    0.50000000    0.61644004    0.51915999    0.04700000
opls_146-340    H    0.50000000    0.57396004    0.49629005    0.04690000
opls_146-341    H    0.50000000    0.19065001    0.61359006    0.04690000
opls_146-342    H    0.50000000    0.24223995    0.59493004    0.04690000
opls_146-343    H    0.50000000    0.42849995    0.57278997    0.04690000
opls_146-344    H    0.50000000    0.30540008    0.55586003    0.04700000
opls_146-345    H    0.50000000    0.38302011    0.59360996    0.04690000
opls_146-346    H    0.50000000    0.35115998    0.53508998    0.04690000
opls_146-347    H    0.50000000    0.46756001    0.55390994    0.04690000
opls_146-348    H    0.50000000    0.38355996    0.51915999    0.04690000
opls_146-349    H    0.50000000    0.42603996    0.49629005    0.04690000
opls_146-350    H    0.00000000    0.69065001    0.11359006    0.04690000
opls_146-351    H    0.00000000    0.74223995    0.09493004    0.04690000
opls_146-352    H    0.00000000    0.92849995    0.07278997    0.04690000
opls_146-353    H    0.00000000    0.80540008    0.05586003    0.04690000
opls_146-354    H    0.00000000    0.88302011    0.09360996    0.04690000
opls_146-355    H    0.00000000    0.85115998    0.03508998    0.04690000
opls_146-356    H    0.00000000    0.96756001    0.05390994    0.04690000
opls_146-357    H    0.00000000    0.88355996    0.01915999    0.04690000
opls_146-358    H    0.00000000    0.92603996    0.99629005    0.04690000
opls_146-359    H    0.80934999    0.00000000    0.86359006    0.04690000
opls_146-360    H    0.75776005    0.00000000    0.84493004    0.04690000
opls_146-361    H    0.57150005    0.00000000    0.82278997    0.04690000
opls_146-362    H    0.69459992    0.00000000    0.80586003    0.04690000
opls_146-363    H    0.61697989    0.00000000    0.84360996    0.04690000
opls_146-364    H    0.64884002    0.00000000    0.78508998    0.04690000
opls_146-365    H    0.53243999    0.00000000    0.80390994    0.04690000
opls_146-366    H    0.61644004    0.00000000    0.76915999    0.04690000
opls_146-367    H    0.57396004    0.00000000    0.74629005    0.04700000
opls_146-368    H    0.69065001    0.50000000    0.36359006    0.04690000
opls_146-369    H    0.74223995    0.50000000    0.34493004    0.04690000
opls_146-370    H    0.92849995    0.50000000    0.32278997    0.04690000
opls_146-371    H    0.80540008    0.50000000    0.30586003    0.04690000
opls_146-372    H    0.88302011    0.50000000    0.34360996    0.04690000
opls_146-373    H    0.85115998    0.50000000    0.28508998    0.04690000
opls_146-374    H    0.96756001    0.50000000    0.30390994    0.04690000
opls_146-375    H    0.88355996    0.50000000    0.26915999    0.04690000
opls_146-376    H    0.92603996    0.50000000    0.24629005    0.04690000
opls_146-377    H    0.30934999    0.50000000    0.36359006    0.04690000
opls_146-378    H    0.25776005    0.50000000    0.34493004    0.04690000
opls_146-379    H    0.07150005    0.50000000    0.32278997    0.04690000
opls_146-380    H    0.19459992    0.50000000    0.30586003    0.04690000
opls_146-381    H    0.11697989    0.50000000    0.34360996    0.04690000
opls_146-382    H    0.14884002    0.50000000    0.28508998    0.04690000
opls_146-383    H    0.03243999    0.50000000    0.30390994    0.04690000
opls_146-384    H    0.11644004    0.50000000    0.26915999    0.04690000
opls_146-385    H    0.07396004    0.50000000    0.24629005    0.04690000
opls_146-386    H    0.19065001    0.00000000    0.86359006    0.04690000
opls_146-387    H    0.24223995    0.00000000    0.84493004    0.04690000
opls_146-388    H    0.42849995    0.00000000    0.82278997    0.04690000
opls_146-389    H    0.30540008    0.00000000    0.80586003    0.04690000
opls_146-390    H    0.38302011    0.00000000    0.84360996    0.04690000
opls_146-391    H    0.35115998    0.00000000    0.78508998    0.04690000
opls_146-392    H    0.46756001    0.00000000    0.80390994    0.04700000
opls_146-393    H    0.38355996    0.00000000    0.76915999    0.04690000
opls_146-394    H    0.42603996    0.00000000    0.74629005    0.04690000
opls_146-395    H    0.30934999    0.00000000    0.88640994    0.04690000
opls_146-396    H    0.25776005    0.00000000    0.90506996    0.04690000
opls_146-397    H    0.07150005    0.00000000    0.92721003    0.04690000
opls_146-398    H    0.19459992    0.00000000    0.94413997    0.04690000
opls_146-399    H    0.11697989    0.00000000    0.90639004    0.04690000
opls_146-400    H    0.14884002    0.00000000    0.96491002    0.04690000
opls_146-401    H    0.03243999    0.00000000    0.94609006    0.04690000
opls_146-402    H    0.11644004    0.00000000    0.98084001    0.04690000
opls_146-403    H    0.07396004    0.00000000    0.00370995    0.04690000
opls_144-404    H    0.50000000    0.16231009    0.64059997    0.02770000
opls_144-405    H    0.00000000    0.66231009    0.14059997    0.02770000
opls_144-406    H    0.00000000    0.33768991    0.14059997    0.02770000
opls_144-407    H    0.50000000    0.83768991    0.64059997    0.02770000
opls_144-408    H    0.83768991    0.00000000    0.89059997    0.02770000
opls_144-409    H    0.33768991    0.50000000    0.39059997    0.02780000
opls_144-410    H    0.66231009    0.50000000    0.39059997    0.02770000
opls_144-411    H    0.00000000    0.16231009    0.10940003    0.02770000
opls_144-412    H    0.50000000    0.66231009    0.60940003    0.02770000
opls_144-413    H    0.50000000    0.33768991    0.60940003    0.02770000
opls_144-414    H    0.00000000    0.83768991    0.10940003    0.02770000
opls_144-415    H    0.66231009    0.00000000    0.85940003    0.02770000
opls_144-416    H    0.83768991    0.50000000    0.35940003    0.02770000
opls_144-417    H    0.16231009    0.50000000    0.35940003    0.02770000
opls_144-418    H    0.33768991    0.00000000    0.85940003    0.02770000
opls_144-419    H    0.16231009    0.00000000    0.89059997    0.02770000
opls_750-420    N    0.50000000    0.18847995    0.66203995    -0.19700000
opls_750-421    N    0.00000000    0.68847995    0.16203995    -0.19700000
opls_750-422    N    0.00000000    0.31152005    0.16203995    -0.19700000
opls_750-423    N    0.50000000    0.81152005    0.66203995    -0.19690000
opls_750-424    N    0.81152005    0.00000000    0.91203995    -0.19700000
opls_750-425    N    0.31152005    0.50000000    0.41203995    -0.19700000
opls_750-426    N    0.68847995    0.50000000    0.41203995    -0.19690000
opls_750-427    N    0.00000000    0.18847995    0.08796005    -0.19690000
opls_750-428    N    0.50000000    0.68847995    0.58796005    -0.19700000
opls_750-429    N    0.50000000    0.31152005    0.58796005    -0.19700000
opls_750-430    N    0.00000000    0.81152005    0.08796005    -0.19690000
opls_750-431    N    0.68847995    0.00000000    0.83796005    -0.19700000
opls_750-432    N    0.81152005    0.50000000    0.33796005    -0.19690000
opls_750-433    N    0.18847995    0.50000000    0.33796005    -0.19700000
opls_750-434    N    0.31152005    0.00000000    0.83796005    -0.19690000
opls_750-435    N    0.18847995    0.00000000    0.91203995    -0.19700000
