#======================================================================
# Crystal Data Generated By AuToFF
#----------------------------------------------------------------------

data_AuToFF_phase_1

_cell_length_a                         46.4965
_cell_length_b                         46.4965
_cell_length_c                         3.5590
_cell_angle_alpha                      90.00
_cell_angle_beta                       90.00
_cell_angle_gamma                      120.00
_symmetry_space_group_name_H-M_alt     'P 1'
_symmetry_space_group_IT_number        1

loop_
_space_group_symop_operation_xyz
   'x, y, z'

loop_
   _atom_site_label
   _atom_site_type_symbol
   _atom_site_fract_x
   _atom_site_fract_y
   _atom_site_fract_z
   _atom_site_charge
opls_140-0    H    0.60091005    0.59816004    0.77470076    0.09020000
opls_140-1    H    0.40183992    0.00274988    0.77470076    0.09020000
opls_140-2    H    0.99725003    0.39909008    0.77470076    0.09020000
opls_140-3    H    0.39908995    0.40183996    0.77470076    0.09020000
opls_140-4    H    0.59816008    0.99725012    0.77470076    0.09020000
opls_140-5    H    0.00274997    0.60090992    0.77470076    0.09020000
opls_140-6    H    0.39908995    0.40183996    0.22529924    0.09020000
opls_140-7    H    0.59816008    0.99725012    0.22529924    0.09030000
opls_140-8    H    0.00274997    0.60090992    0.22529924    0.09020000
opls_140-9    H    0.60091005    0.59816004    0.22529924    0.09020000
opls_140-10    H    0.40183992    0.00274988    0.22529924    0.09020000
opls_140-11    H    0.99725003    0.39909008    0.22529924    0.09020000
opls_140-12    H    0.64009991    0.57379998    0.76930037    0.16210000
opls_140-13    H    0.42620988    0.06629995    0.76930037    0.16210000
opls_140-14    H    0.93370010    0.35990007    0.76930037    0.16210000
opls_140-15    H    0.35990998    0.42620002    0.76930037    0.08960000
opls_140-16    H    0.57380001    0.93370005    0.76930037    0.16210000
opls_140-17    H    0.06629990    0.64009993    0.76930037    0.16210000
opls_140-18    H    0.35990998    0.42620002    0.23069963    0.08960000
opls_140-19    H    0.57380001    0.93370005    0.23069963    0.16210000
opls_140-20    H    0.06629990    0.64009993    0.23069963    0.16210000
opls_140-21    H    0.64009991    0.57379998    0.23069963    0.16220000
opls_140-22    H    0.42620988    0.06629995    0.23069963    0.16210000
opls_140-23    H    0.93370010    0.35990007    0.23069963    0.16210000
opls_140-24    H    0.66220010    0.63712008    0.77288002    0.09580000
opls_140-25    H    0.36287992    0.02508000    0.77288002    0.09490000
opls_140-26    H    0.97491998    0.33779992    0.77288002    0.09480000
opls_140-27    H    0.33779990    0.36287992    0.77288002    0.09480000
opls_140-28    H    0.63712008    0.97492000    0.77288002    0.09550000
opls_140-29    H    0.02508002    0.66220008    0.77288002    0.09480000
opls_140-30    H    0.33779990    0.36287992    0.22711998    0.09480000
opls_140-31    H    0.63712008    0.97492000    0.22711998    0.09550000
opls_140-32    H    0.02508002    0.66220008    0.22711998    0.09480000
opls_140-33    H    0.66220010    0.63712008    0.22711998    0.09580000
opls_140-34    H    0.36287992    0.02508000    0.22711998    0.09480000
opls_140-35    H    0.97491998    0.33779992    0.22711998    0.09480000
opls_140-36    H    0.70203997    0.61265995    0.77295870    0.09680000
opls_140-37    H    0.38734010    0.08937012    0.77295870    0.09510000
opls_140-38    H    0.91063002    0.29796000    0.77295870    0.09650000
opls_140-39    H    0.29796003    0.38734005    0.77295870    0.09680000
opls_140-40    H    0.61265990    0.91062988    0.77295870    0.09500000
opls_140-41    H    0.08936998    0.70204000    0.77295870    0.09650000
opls_140-42    H    0.29796003    0.38734005    0.22704130    0.09680000
opls_140-43    H    0.61265990    0.91062988    0.22704130    0.09500000
opls_140-44    H    0.08936998    0.70204000    0.22704130    0.09650000
opls_140-45    H    0.70203997    0.61265995    0.22704130    0.09680000
opls_140-46    H    0.38734010    0.08937012    0.22704130    0.09510000
opls_140-47    H    0.91063002    0.29796000    0.22704130    0.09650000
opls_146-48    H    0.30508000    0.69890991    0.00000000    0.20120000
opls_146-49    H    0.30109003    0.60617004    0.00000000    0.20120000
opls_146-50    H    0.39382997    0.69492005    0.00000000    0.20120000
opls_146-51    H    0.69492000    0.30109009    0.00000000    0.20120000
opls_146-52    H    0.69890997    0.39382996    0.00000000    0.20120000
opls_146-53    H    0.60617003    0.30507995    0.00000000    0.20120000
opls_547-54    H    0.37864000    0.47425010    0.00000000    0.20170000
opls_547-55    H    0.52575003    0.90439005    0.00000000    0.20170000
opls_547-56    H    0.09561009    0.62136009    0.00000000    0.20170000
opls_547-57    H    0.62136000    0.52574990    0.00000000    0.20170000
opls_547-58    H    0.47424997    0.09560995    0.00000000    0.20170000
opls_547-59    H    0.90438991    0.37863991    0.00000000    0.20170000
opls_146-60    H    0.41846001    0.67068988    0.00000000    0.20030000
opls_146-61    H    0.32931007    0.74777008    0.00000000    0.20030000
opls_146-62    H    0.25222991    0.58154004    0.00000000    0.20030000
opls_146-63    H    0.58153999    0.32931012    0.00000000    0.20030000
opls_146-64    H    0.67068993    0.25222992    0.00000000    0.20030000
opls_146-65    H    0.74777009    0.41845996    0.00000000    0.20030000
opls_146-66    H    0.44478006    0.63837992    0.00000000    0.09250000
opls_146-67    H    0.36162008    0.80639007    0.00000000    0.09480000
opls_146-68    H    0.19360995    0.55522007    0.00000000    0.09250000
opls_146-69    H    0.55521994    0.36162008    0.00000000    0.09250000
opls_146-70    H    0.63839003    0.19360993    0.00000000    0.09250000
opls_146-71    H    0.80639005    0.44477993    0.00000000    0.09260000
opls_146-72    H    0.34888996    0.54865989    0.00000000    0.07920000
opls_146-73    H    0.45133991    0.80022996    0.00000000    0.07920000
opls_146-74    H    0.19977000    0.65110990    0.00000000    0.07920000
opls_146-75    H    0.65111004    0.45134011    0.00000000    0.07920000
opls_146-76    H    0.54866009    0.19977004    0.00000000    0.07920000
opls_146-77    H    0.80023000    0.34889010    0.00000000    0.07920000
opls_146-78    H    0.32208996    0.57851003    0.00000000    0.20030000
opls_146-79    H    0.42149012    0.74358006    0.00000000    0.20030000
opls_146-80    H    0.25641993    0.67790991    0.00000000    0.20030000
opls_146-81    H    0.67791004    0.42148997    0.00000000    0.20030000
opls_146-82    H    0.57850988    0.25641994    0.00000000    0.20030000
opls_146-83    H    0.74358007    0.32209009    0.00000000    0.20030000
opls_144-84    H    0.37565001    0.52527010    0.00000000    0.08610000
opls_144-85    H    0.47473006    0.85037009    0.00000000    0.08600000
opls_144-86    H    0.14963014    0.62435012    0.00000000    0.08610000
opls_144-87    H    0.62434999    0.47472990    0.00000000    0.08610000
opls_144-88    H    0.52526994    0.14962991    0.00000000    0.08600000
opls_144-89    H    0.85036986    0.37564988    0.00000000    0.08610000
opls_140-90    H    0.71919986    0.65263993    0.00000000    0.13970000
opls_140-91    H    0.34735997    0.06655996    0.00000000    0.13970000
opls_140-92    H    0.93343996    0.28080011    0.00000000    0.13970000
opls_140-93    H    0.28080014    0.34736007    0.00000000    0.13970000
opls_140-94    H    0.65264003    0.93344004    0.00000000    0.13970000
opls_140-95    H    0.06656004    0.71919989    0.00000000    0.13970000
opls_700-96    C    0.35197010    0.70166004    0.00000000    0.05810000
opls_700-97    C    0.29834007    0.65030999    0.00000000    0.05810000
opls_700-98    C    0.34969004    0.64802997    0.00000000    0.05810000
opls_700-99    C    0.64802990    0.29833996    0.00000000    0.05810000
opls_700-100    C    0.70165993    0.34969001    0.00000000    0.05810000
opls_700-101    C    0.65030996    0.35197003    0.00000000    0.05810000
opls_145-102    C    0.31716995    0.68508996    0.00000000    -0.10400000
opls_145-103    C    0.31491002    0.63208000    0.00000000    -0.10400000
opls_145-104    C    0.36792003    0.68283005    0.00000000    -0.10400000
opls_145-105    C    0.68283005    0.31491004    0.00000000    -0.10400000
opls_145-106    C    0.68508998    0.36792000    0.00000000    -0.10400000
opls_145-107    C    0.63207997    0.31716995    0.00000000    -0.10400000
opls_716-108    C    0.40510007    0.48908006    0.00000000    -0.25720000
opls_716-109    C    0.51091995    0.91601988    0.00000000    -0.25730000
opls_716-110    C    0.08397998    0.59490006    0.00000000    -0.25730000
opls_716-111    C    0.59489993    0.51091994    0.00000000    -0.25730000
opls_716-112    C    0.48908005    0.08398012    0.00000000    -0.25720000
opls_716-113    C    0.91602002    0.40509994    0.00000000    -0.25720000
opls_543-114    C    0.42918000    0.48047006    0.00000000    0.11350000
opls_543-115    C    0.51953004    0.94871005    0.00000000    0.11350000
opls_543-116    C    0.05128996    0.57081989    0.00000000    0.11350000
opls_543-117    C    0.57082000    0.51952994    0.00000000    0.11360000
opls_543-118    C    0.48046996    0.05128995    0.00000000    0.11350000
opls_543-119    C    0.94871004    0.42918011    0.00000000    0.11350000
opls_567-120    C    0.46068008    0.50578996    0.00000000    -0.07710000
opls_567-121    C    0.49420993    0.95489003    0.00000000    -0.07710000
opls_567-122    C    0.04510999    0.53932002    0.00000000    -0.07710000
opls_567-123    C    0.53931992    0.49421004    0.00000000    -0.07710000
opls_567-124    C    0.50579007    0.04510997    0.00000000    -0.07710000
opls_567-125    C    0.95489001    0.46067998    0.00000000    -0.07700000
opls_245-126    C    0.39733996    0.41658995    0.00000000    -0.06830000
opls_245-127    C    0.58340999    0.98075007    0.00000000    -0.06830000
opls_245-128    C    0.01925005    0.60265998    0.00000000    -0.06820000
opls_245-129    C    0.60266004    0.58341005    0.00000000    -0.06830000
opls_245-130    C    0.41659001    0.01924993    0.00000000    -0.06830000
opls_245-131    C    0.98074995    0.39734002    0.00000000    -0.06830000
opls_700-132    C    0.36685994    0.62845992    0.00000000    0.05250000
opls_700-133    C    0.37153992    0.73839991    0.00000000    0.05250000
opls_700-134    C    0.26160001    0.63313992    0.00000000    0.05250000
opls_700-135    C    0.63314006    0.37154008    0.00000000    0.05250000
opls_700-136    C    0.62846008    0.26160009    0.00000000    0.05250000
opls_700-137    C    0.73839999    0.36686008    0.00000000    0.05250000
opls_145-138    C    0.40167991    0.64443001    0.00000000    -0.14700000
opls_145-139    C    0.35556994    0.75725002    0.00000000    -0.14700000
opls_145-140    C    0.24274993    0.59831997    0.00000000    -0.14810000
opls_145-141    C    0.59832009    0.35556999    0.00000000    -0.14700000
opls_145-142    C    0.64443006    0.24274998    0.00000000    -0.14700000
opls_145-143    C    0.75725007    0.40168003    0.00000000    -0.14810000
opls_145-144    C    0.41790995    0.62598992    0.00000000    -0.19900000
opls_145-145    C    0.37400994    0.79191996    0.00000000    -0.20080000
opls_145-146    C    0.20808010    0.58209012    0.00000000    -0.19900000
opls_145-147    C    0.58209005    0.37401008    0.00000000    -0.19890000
opls_145-148    C    0.62599006    0.20808004    0.00000000    -0.19890000
opls_145-149    C    0.79191990    0.41790988    0.00000000    -0.19900000
opls_145-150    C    0.39963014    0.59130010    0.00000000    0.16230000
opls_145-151    C    0.40870002    0.80833012    0.00000000    0.16240000
opls_145-152    C    0.19166996    0.60037003    0.00000000    0.16240000
opls_145-153    C    0.60036986    0.40869990    0.00000000    0.16230000
opls_145-154    C    0.59129998    0.19166988    0.00000000    0.16230000
opls_145-155    C    0.80833004    0.39962997    0.00000000    0.16230000
opls_145-156    C    0.36479994    0.57514997    0.00000000    -0.19030000
opls_145-157    C    0.42485012    0.78965012    0.00000000    -0.19050000
opls_145-158    C    0.21034995    0.63519991    0.00000000    -0.19050000
opls_145-159    C    0.63520006    0.42485003    0.00000000    -0.19050000
opls_145-160    C    0.57515001    0.21035012    0.00000000    -0.19050000
opls_145-161    C    0.78965005    0.36480009    0.00000000    -0.19050000
opls_145-162    C    0.34860005    0.59360993    0.00000000    -0.14810000
opls_145-163    C    0.40639013    0.75499011    0.00000000    -0.14800000
opls_145-164    C    0.24501004    0.65139996    0.00000000    -0.14810000
opls_145-165    C    0.65139995    0.40639007    0.00000000    -0.14810000
opls_145-166    C    0.59360987    0.24500989    0.00000000    -0.14810000
opls_145-167    C    0.75498996    0.34860004    0.00000000    -0.14810000
opls_142-168    C    0.40214993    0.54100005    0.00000000    0.04960000
opls_142-169    C    0.45899998    0.86115009    0.00000000    0.04420000
opls_142-170    C    0.13884999    0.59785011    0.00000000    0.04910000
opls_142-171    C    0.59785007    0.45899995    0.00000000    0.04960000
opls_142-172    C    0.54100002    0.13884991    0.00000000    0.04420000
opls_142-173    C    0.86115001    0.40214989    0.00000000    0.04910000
opls_567-174    C    0.42107005    0.52355009    0.00000000    -0.01450000
opls_567-175    C    0.47645001    0.89751994    0.00000000    -0.01450000
opls_567-176    C    0.10247994    0.57892997    0.00000000    -0.01450000
opls_567-177    C    0.57892995    0.47644991    0.00000000    -0.01450000
opls_567-178    C    0.52354999    0.10248006    0.00000000    -0.01450000
opls_567-179    C    0.89752006    0.42107003    0.00000000    -0.01450000
opls_716-180    C    0.48320005    0.49200999    0.00000000    -0.08600000
opls_716-181    C    0.50798996    0.99119009    0.00000000    -0.08600000
opls_716-182    C    0.00880999    0.51679992    0.00000000    -0.08590000
opls_716-183    C    0.51679995    0.50799001    0.00000000    -0.08600000
opls_716-184    C    0.49201004    0.00880991    0.00000000    -0.08590000
opls_716-185    C    0.99119001    0.48320008    0.00000000    -0.08600000
opls_234-186    C    0.45904998    0.45569999    0.00000000    0.36140000
opls_234-187    C    0.54429987    0.00334988    0.00000000    0.36140000
opls_234-188    C    0.99665003    0.54094988    0.00000000    0.36140000
opls_234-189    C    0.54095002    0.54430001    0.00000000    0.36140000
opls_234-190    C    0.45570013    0.99665012    0.00000000    0.36140000
opls_234-191    C    0.00334997    0.45905012    0.00000000    0.36140000
opls_136-192    C    0.63698995    0.58668989    0.00000000    -0.20670000
opls_136-193    C    0.41331000    0.05030006    0.00000000    -0.20690000
opls_136-194    C    0.94970005    0.36301005    0.00000000    -0.20690000
opls_136-195    C    0.36301005    0.41331011    0.00000000    -0.20690000
opls_136-196    C    0.58669000    0.94969994    0.00000000    -0.20680000
opls_136-197    C    0.05029995    0.63698995    0.00000000    -0.20690000
opls_136-198    C    0.66472990    0.62309997    0.00000000    -0.14630000
opls_136-199    C    0.37690998    0.04163990    0.00000000    -0.14630000
opls_136-200    C    0.95835993    0.33527007    0.00000000    -0.14630000
opls_136-201    C    0.33526990    0.37690996    0.00000000    -0.14630000
opls_136-202    C    0.62310013    0.95836010    0.00000000    -0.14630000
opls_136-203    C    0.04164007    0.66472993    0.00000000    -0.14630000
opls_135-204    C    0.69899998    0.62627005    0.00000000    -0.45030000
opls_135-205    C    0.37372997    0.07273000    0.00000000    -0.45030000
opls_135-206    C    0.92727005    0.30099995    0.00000000    -0.45020000
opls_135-207    C    0.30100002    0.37372995    0.00000000    -0.45060000
opls_135-208    C    0.62627003    0.92727000    0.00000000    -0.45020000
opls_135-209    C    0.07272995    0.69900005    0.00000000    -0.45030000
opls_633-210    S    0.46412999    0.54392998    0.00000000    0.06330000
opls_633-211    S    0.45607000    0.92019996    0.00000000    0.06330000
opls_633-212    S    0.07980001    0.53587006    0.00000000    0.06330000
opls_633-213    S    0.53587001    0.45607002    0.00000000    0.06330000
opls_633-214    S    0.54393000    0.07980004    0.00000000    0.06330000
opls_633-215    S    0.92019999    0.46412994    0.00000000    0.06330000
opls_750-216    N    0.41697996    0.57312996    0.00000000    -0.35130000
opls_750-217    N    0.42687005    0.84384989    0.00000000    -0.35120000
opls_750-218    N    0.15614987    0.58301991    0.00000000    -0.35130000
opls_750-219    N    0.58302004    0.42687004    0.00000000    -0.35120000
opls_750-220    N    0.57312995    0.15615011    0.00000000    -0.35130000
opls_750-221    N    0.84385013    0.41698009    0.00000000    -0.35130000
opls_542-222    N    0.42705994    0.44911994    0.00000000    -0.04500000
opls_542-223    N    0.55088008    0.97794008    0.00000000    -0.04500000
opls_542-224    N    0.02205998    0.57293998    0.00000000    -0.04500000
opls_542-225    N    0.57294006    0.55088006    0.00000000    -0.04500000
opls_542-226    N    0.44911992    0.02205992    0.00000000    -0.04500000
opls_542-227    N    0.97794002    0.42706002    0.00000000    -0.04490000
opls_236-228    O    0.46598002    0.43379007    0.00000000    -0.43110000
opls_236-229    O    0.56620996    0.03219001    0.00000000    -0.43100000
opls_236-230    O    0.96781002    0.53401991    0.00000000    -0.43110000
opls_236-231    O    0.53401998    0.56620993    0.00000000    -0.43100000
opls_236-232    O    0.43379004    0.96780999    0.00000000    -0.43100000
opls_236-233    O    0.03218998    0.46598009    0.00000000    -0.43110000
