#======================================================================
# Crystal Data Generated By AuToFF
#----------------------------------------------------------------------

data_AuToFF_phase_1

_cell_length_a                         22.8068
_cell_length_b                         22.8068
_cell_length_c                         3.4656
_cell_angle_alpha                      90.00
_cell_angle_beta                       90.00
_cell_angle_gamma                      120.00
_symmetry_space_group_name_H-M_alt     'P 1'
_symmetry_space_group_IT_number        1

loop_
_space_group_symop_operation_xyz
   'x, y, z'

loop_
   _atom_site_label
   _atom_site_type_symbol
   _atom_site_fract_x
   _atom_site_fract_y
   _atom_site_fract_z
   _atom_site_charge
opls_641-0    N    0.28864004    0.68920986    0.50000000    -0.39000000
opls_641-1    N    0.31079011    0.59942981    0.50000000    -0.39000000
opls_641-2    N    0.40057003    0.71135983    0.50000000    -0.39000000
opls_641-3    N    0.71135996    0.31079014    0.50000000    -0.39000000
opls_641-4    N    0.68920989    0.40057019    0.50000000    -0.39000000
opls_641-5    N    0.59942997    0.28864017    0.50000000    -0.39000000
opls_642-6    C    0.26589979    0.62177976    0.50000000    0.37420000
opls_142-7    C    0.42783977    0.62078995    0.50000000    -0.19340000
opls_142-8    C    0.40935975    0.55487976    0.50000000    -0.16390000
opls_700-9    C    0.45708974    0.52834982    0.50000000    0.12200000
opls_145-10    C    0.42988995    0.45791992    0.50000000    -0.11000000
opls_145-11    C    0.47202004    0.42973996    0.50000000    -0.11000000
opls_642-12    C    0.37822005    0.64412010    0.50000000    0.37420000
opls_142-13    C    0.37920982    0.80704988    0.50000000    -0.19340000
opls_142-14    C    0.44512006    0.85447974    0.50000000    -0.16390000
opls_700-15    C    0.47164973    0.92873977    0.50000000    0.12200000
opls_145-16    C    0.54208006    0.97196990    0.50000000    -0.11000000
opls_145-17    C    0.57025991    0.04227981    0.50000000    -0.11010000
opls_642-18    C    0.35588015    0.73410014    0.50000000    0.37420000
opls_142-19    C    0.19294997    0.57216017    0.50000000    -0.19350000
opls_142-20    C    0.14551994    0.59063999    0.50000000    -0.16400000
opls_700-21    C    0.07125983    0.54290990    0.50000000    0.12200000
opls_145-22    C    0.02802999    0.57011018    0.50000000    -0.11000000
opls_145-23    C    0.95771980    0.52797972    0.50000000    -0.11000000
opls_642-24    C    0.73409996    0.37821973    0.50000000    0.37420000
opls_142-25    C    0.57216023    0.37921005    0.50000000    -0.19340000
opls_142-26    C    0.59064000    0.44511973    0.50000000    -0.16400000
opls_700-27    C    0.54291026    0.47165018    0.50000000    0.12180000
opls_145-28    C    0.57011005    0.54208008    0.50000000    -0.11000000
opls_145-29    C    0.52797996    0.57026004    0.50000000    -0.11000000
opls_642-30    C    0.62177995    0.35587990    0.50000000    0.37410000
opls_142-31    C    0.62079018    0.19295012    0.50000000    -0.19340000
opls_142-32    C    0.55487968    0.14551976    0.50000000    -0.16390000
opls_700-33    C    0.52835027    0.07126023    0.50000000    0.12200000
opls_145-34    C    0.45791994    0.02803010    0.50000000    -0.11010000
opls_145-35    C    0.42973984    0.95771968    0.50000000    -0.11000000
opls_642-36    C    0.64411985    0.26589986    0.50000000    0.37420000
opls_142-37    C    0.80705003    0.42783983    0.50000000    -0.19340000
opls_142-38    C    0.85448006    0.40936001    0.50000000    -0.16400000
opls_700-39    C    0.92874017    0.45709010    0.50000000    0.12200000
opls_145-40    C    0.97197001    0.42988982    0.50000000    -0.11000000
opls_145-41    C    0.04227995    0.47201977    0.50000000    -0.11000000
opls_144-42    H    0.48031992    0.65984972    0.50000000    0.10170000
opls_144-43    H    0.35576984    0.51780974    0.50000000    0.12900000
opls_146-44    H    0.37557998    0.42436005    0.50000000    0.13050000
opls_146-45    H    0.44824002    0.37531004    0.50000000    0.11000000
opls_144-46    H    0.34015009    0.82046977    0.50000000    0.10170000
opls_144-47    H    0.48218999    0.83795979    0.50000000    0.12900000
opls_146-48    H    0.57563974    0.95121985    0.50000000    0.13050000
opls_146-49    H    0.62469000    0.07292999    0.50000000    0.11010000
opls_144-50    H    0.17953018    0.51968000    0.50000000    0.10170000
opls_144-51    H    0.16203992    0.64422997    0.50000000    0.12900000
opls_146-52    H    0.04877985    0.62442010    0.50000000    0.13050000
opls_146-53    H    0.92706998    0.55175996    0.50000000    0.11010000
opls_144-54    H    0.51967983    0.34014977    0.50000000    0.10170000
opls_144-55    H    0.64422991    0.48218975    0.50000000    0.12890000
opls_146-56    H    0.62442002    0.57563995    0.50000000    0.13050000
opls_146-57    H    0.55175998    0.62468996    0.50000000    0.11010000
opls_144-58    H    0.65984991    0.17953023    0.50000000    0.10170000
opls_144-59    H    0.51781001    0.16204021    0.50000000    0.12900000
opls_146-60    H    0.42436026    0.04878015    0.50000000    0.13050000
opls_146-61    H    0.37531000    0.92707001    0.50000000    0.11010000
opls_144-62    H    0.82046982    0.48032000    0.50000000    0.10160000
opls_144-63    H    0.83796008    0.35577003    0.50000000    0.12900000
opls_146-64    H    0.95122015    0.37557990    0.50000000    0.13050000
opls_146-65    H    0.07293002    0.44824004    0.50000000    0.11010000
