#======================================================================
# Crystal Data Generated By AuToFF
#----------------------------------------------------------------------

data_AuToFF_phase_1

_cell_length_a                         30.1778
_cell_length_b                         30.0766
_cell_length_c                         3.7787
_cell_angle_alpha                      88.83
_cell_angle_beta                       91.25
_cell_angle_gamma                      60.12
_symmetry_space_group_name_H-M_alt     'P 1'
_symmetry_space_group_IT_number        1

loop_
_space_group_symop_operation_xyz
   'x, y, z'

loop_
   _atom_site_label
   _atom_site_type_symbol
   _atom_site_fract_x
   _atom_site_fract_y
   _atom_site_fract_z
   _atom_site_charge
opls_700-0    C    0.02310028    0.03087974    0.97849984    0.08360000
opls_700-1    C    0.96938034    0.05390972    0.96555789    0.00130000
opls_700-2    C    0.94575013    0.02355000    0.99515803    0.07520000
opls_700-3    C    0.97639981    0.96970998    0.01653900    0.00030000
opls_700-4    C    0.03028998    0.94603011    0.01025079    0.07220000
opls_700-5    C    0.05348009    0.97671987    0.00536908    0.00480000
opls_142-6    C    0.10934997    0.95475001    0.05983864    0.07800000
opls_142-7    C    0.93555020    0.10977981    0.91186972    0.06900000
opls_142-8    C    0.95448000    0.93602008    0.07102974    0.06980000
opls_145-9    C    0.91020991    0.19613993    0.02120085    0.13900000
opls_700-10    C    0.93361001    0.22699003    0.02018107    0.08760000
opls_700-11    C    0.85600010    0.22065000    0.01024019    0.08880000
opls_145-12    C    0.90349999    0.28019018    0.00192037    -0.17780000
opls_145-13    C    0.82768021    0.27404972    0.99720818    -0.17570000
opls_700-14    C    0.84981022    0.30545993    0.99284829    0.07150000
opls_145-15    C    0.19631003    0.89417998    0.97643908    0.11470000
opls_700-16    C    0.22712011    0.83987974    0.99461767    0.08760000
opls_700-17    C    0.22072020    0.92409997    0.98539991    0.08830000
opls_145-18    C    0.28005982    0.81707007    0.02249876    -0.17530000
opls_145-19    C    0.27399014    0.89924985    0.00811057    -0.16720000
opls_700-20    C    0.30529003    0.84569988    0.02704936    0.06560000
opls_145-21    C    0.89344998    0.91022989    0.96269985    0.13900000
opls_700-22    C    0.83951998    0.93365989    0.97677813    0.08720000
opls_700-23    C    0.92313022    0.85584996    0.96829938    0.08820000
opls_145-24    C    0.81670019    0.90338979    0.99850874    -0.17780000
opls_145-25    C    0.89826015    0.82735972    0.98610979    -0.17150000
opls_700-26    C    0.84501993    0.84952990    0.00211903    0.06490000
opls_700-27    C    0.81805004    0.36197983    0.99844781    0.06500000
opls_145-28    C    0.84005984    0.39340007    0.02133064    -0.17100000
opls_145-29    C    0.76439007    0.38687006    0.00090059    -0.17570000
opls_700-30    C    0.81148011    0.44663001    0.04233019    0.08960000
opls_700-31    C    0.73418005    0.43965987    0.02838965    0.08470000
opls_145-32    C    0.75744005    0.47051999    0.04336056    0.13310000
opls_700-33    C    0.36168988    0.82096984    0.03286874    0.07150000
opls_145-34    C    0.38711985    0.84940984    0.03530032    -0.17770000
opls_700-35    C    0.44587989    0.74256003    0.00659017    0.08810000
opls_700-36    C    0.43983980    0.82658005    0.01089974    0.08890000
opls_145-37    C    0.47043014    0.77241001    0.99279796    0.12300000
opls_700-38    C    0.82035986    0.81761990    0.01542121    0.06490000
opls_145-39    C    0.76720991    0.83957992    0.03633070    -0.17260000
opls_145-40    C    0.84876998    0.76377984    0.01328099    -0.17490000
opls_700-41    C    0.74246002    0.81089986    0.04764099    0.08960000
opls_700-42    C    0.82610982    0.73334002    0.03300912    0.08900000
opls_145-43    C    0.77221998    0.75665010    0.04472998    0.10850000
opls_700-44    C    0.64397019    0.63538982    0.95804859    0.07890000
opls_700-45    C    0.61347020    0.68940967    0.97283939    -0.00870000
opls_700-46    C    0.63619028    0.72059974    0.94137980    0.08010000
opls_142-47    C    0.55885988    0.70991010    0.04332083    0.07000000
opls_700-48    C    0.68992014    0.69719993    0.92490968    0.00500000
opls_142-49    C    0.71283997    0.73055984    0.89332825    0.06990000
opls_700-50    C    0.72092018    0.64324966    0.92659960    0.08360000
opls_700-51    C    0.69752015    0.61257999    0.93591007    0.00080000
opls_142-52    C    0.73020007    0.55673974    0.90236854    0.07000000
opls_148-53    C    0.88882005    0.04942013    0.03192047    -0.40290000
opls_148-54    C    0.04872022    0.06258985    0.94066993    -0.41590000
opls_148-55    C    0.06186013    0.88843982    0.00884958    -0.40180000
opls_148-56    C    0.60398019    0.77807984    0.95120943    -0.40290000
opls_148-57    C    0.77817019    0.61838981    0.92178941    -0.39930000
opls_148-58    C    0.61829002    0.60349991    0.93551805    -0.43820000
opls_148-59    C    0.67704995    0.46404010    0.03310978    -0.43510000
opls_148-60    C    0.99084013    0.20227003    0.03767893    -0.43510000
opls_148-61    C    0.80729025    0.99105971    0.97699003    -0.43500000
opls_148-62    C    0.85862989    0.67599017    0.03050867    -0.43510000
opls_148-63    C    0.20284021    0.80680967    0.98930952    -0.42400000
opls_148-64    C    0.46430002    0.85952004    0.00161046    -0.43620000
opls_148-65    C    0.83998989    0.47565013    0.08145005    -0.43320000
opls_148-66    C    0.82683020    0.19221986    0.03713063    -0.43070000
opls_148-67    C    0.19221998    0.98181992    0.95193785    -0.43570000
opls_148-68    C    0.47360020    0.68498986    0.98900755    -0.43340000
opls_148-69    C    0.68514990    0.83935006    0.07509032    -0.43280000
opls_148-70    C    0.98035999    0.82690988    0.93752847    -0.43330000
opls_145-71    C    0.39272983    0.76753004    0.02190013    -0.16790000
opls_144-72    H    0.11982001    0.97575976    0.24837895    0.06210000
opls_144-73    H    0.90325006    0.12131974    0.72082896    0.06290000
opls_144-74    H    0.97550012    0.90418977    0.26693896    0.06400000
opls_146-75    H    0.92321995    0.30224999    0.00250045    0.10470000
opls_146-76    H    0.78622025    0.29143989    0.99835776    0.10550000
opls_146-77    H    0.30199994    0.77527991    0.03412956    0.10600000
opls_146-78    H    0.29137998    0.92349012    0.00376922    0.10580000
opls_146-79    H    0.77514019    0.92314982    0.00920982    0.10580000
opls_146-80    H    0.92221029    0.78576979    0.98296833    0.10600000
opls_146-81    H    0.88156002    0.37610986    0.02962928    0.10540000
opls_146-82    H    0.74484008    0.36470993    0.98684880    0.10570000
opls_146-83    H    0.37519980    0.74342998    0.01947120    0.10600000
opls_146-84    H    0.36540993    0.89107992    0.04866872    0.10530000
opls_146-85    H    0.74322005    0.88112991    0.04627952    0.10530000
opls_146-86    H    0.89027989    0.74415997    0.99917888    0.10470000
opls_144-87    H    0.55168006    0.68438999    0.21525063    0.06630000
opls_144-88    H    0.69516993    0.76146991    0.68761853    0.06630000
opls_144-89    H    0.75908005    0.54467995    0.69846000    0.06540000
opls_702-90    H    0.87483016    0.08539996    0.17012068    0.12590000
opls_702-91    H    0.86816996    0.05851002    0.77331988    0.12360000
opls_702-92    H    0.87825994    0.02457997    0.17891993    0.13310000
opls_702-93    H    0.05822035    0.07238983    0.19968903    0.12350000
opls_702-94    H    0.08432010    0.04188987    0.79905015    0.12550000
opls_702-95    H    0.02360014    0.09899997    0.79776814    0.12340000
opls_702-96    H    0.07237996    0.87123983    0.27921872    0.12090000
opls_702-97    H    0.04091989    0.87215996    0.87548075    0.12480000
opls_702-98    H    0.09737984    0.87685002    0.87343060    0.11760000
opls_702-99    H    0.79445028    0.61226966    0.19356770    0.12230000
opls_702-100    H    0.79572009    0.58077991    0.80207770    0.12610000
opls_702-101    H    0.78997990    0.64275000    0.78214827    0.12060000
opls_702-102    H    0.60966006    0.59384987    0.19797792    0.12690000
opls_702-103    H    0.58210013    0.62407981    0.78034975    0.12360000
opls_702-104    H    0.64292011    0.56707971    0.81254834    0.12930000
opls_702-105    H    0.59323015    0.78983969    0.22461937    0.12090000
opls_702-106    H    0.62428019    0.79739980    0.85688895    0.12190000
opls_702-107    H    0.56816004    0.79195989    0.79737877    0.12670000
opls_702-108    H    0.66100998    0.49596014    0.21451956    0.12470000
opls_702-109    H    0.65927975    0.48026010    0.76995063    0.12350000
opls_702-110    H    0.66579002    0.43581003    0.11152962    0.12230000
opls_702-111    H    0.00769008    0.16854000    0.22015882    0.12410000
opls_702-112    H    0.00711995    0.18844994    0.77814066    0.12520000
opls_702-113    H    0.00271003    0.22955979    0.12308890    0.12340000
opls_702-114    H    0.80758022    0.00544959    0.24193976    0.12370000
opls_702-115    H    0.82238999    0.00912991    0.79828995    0.12470000
opls_702-116    H    0.76738025    0.00370965    0.89892777    0.11910000
opls_702-117    H    0.84381009    0.65752989    0.20827903    0.12390000
opls_702-118    H    0.85855989    0.66168998    0.76498151    0.12530000
opls_702-119    H    0.89845992    0.66358984    0.10937881    0.12230000
opls_702-120    H    0.18547018    0.80725978    0.24293835    0.12360000
opls_702-121    H    0.17185991    0.82089000    0.78598900    0.12380000
opls_702-122    H    0.23121031    0.76685971    0.93824894    0.11910000
opls_702-123    H    0.49669012    0.84556979    0.19336904    0.12380000
opls_702-124    H    0.47959980    0.85931990    0.73987900    0.12140000
opls_702-125    H    0.43635992    0.89935997    0.05917114    0.12080000
opls_702-126    H    0.87793015    0.45059989    0.20724866    0.12090000
opls_702-127    H    0.84607978    0.48930018    0.82479896    0.12340000
opls_702-128    H    0.81960988    0.50955012    0.24258871    0.12410000
opls_702-129    H    0.78823017    0.21786980    0.12892947    0.11910000
opls_702-130    H    0.82251002    0.17740985    0.78296939    0.12060000
opls_702-131    H    0.84579012    0.15915990    0.22461937    0.12390000
opls_702-132    H    0.17696021    0.99992985    0.20421845    0.11990000
opls_702-133    H    0.21786009    0.99545995    0.86181834    0.12340000
opls_702-134    H    0.15958014    0.99630976    0.76184800    0.12390000
opls_702-135    H    0.49359003    0.66570991    0.24061801    0.11990000
opls_702-136    H    0.44625016    0.67194975    0.92805908    0.12080000
opls_702-137    H    0.50251011    0.67101002    0.78562877    0.12420000
opls_702-138    H    0.67237992    0.87678011    0.19180891    0.12230000
opls_702-139    H    0.66537001    0.84683005    0.81417999    0.12690000
opls_702-140    H    0.67168002    0.81809995    0.23769906    0.12340000
opls_702-141    H    0.00089026    0.82234975    0.19159965    0.12400000
opls_702-142    H    0.99289007    0.78826977    0.84329011    0.12410000
opls_702-143    H    0.99306998    0.84637987    0.75104892    0.12420000
opls_750-144    N    0.14374032    0.91395969    0.91828772    -0.27360000
opls_750-145    N    0.94309998    0.14318014    0.06723933    -0.27580000
opls_750-146    N    0.91315996    0.94323995    0.91287891    -0.27690000
opls_750-147    N    0.52209014    0.75383967    0.92951856    -0.27850000
opls_750-148    N    0.75191979    0.72377006    0.08036935    -0.29420000
opls_750-149    N    0.72502993    0.52321990    0.08534906    -0.29090000
