#======================================================================
# Crystal Data Generated By AuToFF
#----------------------------------------------------------------------

data_AuToFF_phase_1

_cell_length_a                         25.8059
_cell_length_b                         25.8059
_cell_length_c                         3.5205
_cell_angle_alpha                      90.00
_cell_angle_beta                       90.00
_cell_angle_gamma                      120.00
_symmetry_space_group_name_H-M_alt     'P 1'
_symmetry_space_group_IT_number        1

loop_
_space_group_symop_operation_xyz
   'x, y, z'

loop_
   _atom_site_label
   _atom_site_type_symbol
   _atom_site_fract_x
   _atom_site_fract_y
   _atom_site_fract_z
   _atom_site_charge
opls_142-0    C    0.02144017    0.55837020    0.50000000    0.10250000
opls_142-1    C    0.44163003    0.46307010    0.50000000    0.10250000
opls_142-2    C    0.53693003    0.97856014    0.50000000    0.10250000
opls_145-3    C    0.12479020    0.64120015    0.50000000    -0.18610000
opls_523-4    C    0.18682000    0.66289014    0.50000000    -0.18620000
opls_145-5    C    0.89007011    0.40750992    0.50000000    -0.21690000
opls_523-6    C    0.82716005    0.37333009    0.50000000    -0.18550000
opls_145-7    C    0.35880002    0.48358999    0.50000000    -0.18610000
opls_523-8    C    0.33711030    0.52394024    0.50000000    -0.18620000
opls_145-9    C    0.59248001    0.48255011    0.50000000    -0.21690000
opls_523-10    C    0.62667016    0.45383013    0.50000000    -0.18550000
opls_145-11    C    0.51641000    0.87521030    0.50000000    -0.18610000
opls_523-12    C    0.47605984    0.81317007    0.50000000    -0.18620000
opls_145-13    C    0.51743992    0.10993013    0.50000000    -0.21690000
opls_523-14    C    0.54617001    0.17284022    0.50000000    -0.18550000
opls_145-15    C    0.43312020    0.89365042    0.50000000    -0.18610000
opls_523-16    C    0.39283023    0.83160034    0.50000000    -0.18620000
opls_145-17    C    0.61382992    0.11518013    0.50000000    -0.21600000
opls_523-18    C    0.64259011    0.17810007    0.50000000    -0.18550000
opls_145-19    C    0.10634993    0.53947010    0.50000000    -0.18610000
opls_523-20    C    0.16840014    0.56123034    0.50000000    -0.18620000
opls_145-21    C    0.88482000    0.49865002    0.50000000    -0.21600000
opls_523-22    C    0.82189006    0.46448004    0.50000000    -0.18550000
opls_145-23    C    0.46053008    0.56687992    0.50000000    -0.18610000
opls_523-24    C    0.43877009    0.60717022    0.50000000    -0.18620000
opls_145-25    C    0.50135031    0.38617029    0.50000000    -0.21600000
opls_523-26    C    0.53551994    0.35741005    0.50000000    -0.18550000
opls_531-27    C    0.37274009    0.72735022    0.50000000    0.31570000
opls_531-28    C    0.27265003    0.64538028    0.50000000    0.31570000
opls_531-29    C    0.35461990    0.62726010    0.50000000    0.31570000
opls_700-30    C    0.49566017    0.91659015    0.50000000    0.04760000
opls_700-31    C    0.08341003    0.57906997    0.50000000    0.04760000
opls_700-32    C    0.42092991    0.50433003    0.50000000    0.04760000
opls_700-33    C    0.41329998    0.78984015    0.50000000    0.00730000
opls_700-34    C    0.21016024    0.62347015    0.50000000    0.00700000
opls_700-35    C    0.37652981    0.58669999    0.50000000    0.00730000
opls_531-36    C    0.63850009    0.27183004    0.50000000    0.31490000
opls_531-37    C    0.72817017    0.36667016    0.50000000    0.31570000
opls_531-38    C    0.63332996    0.36150025    0.50000000    0.31570000
opls_145-39    C    0.55075988    0.08030987    0.50000000    0.19870000
opls_145-40    C    0.91969018    0.47045000    0.50000000    0.19870000
opls_145-41    C    0.52954995    0.44924013    0.50000000    0.19880000
opls_700-42    C    0.60949001    0.20848010    0.50000000    0.00720000
opls_700-43    C    0.79151025    0.40101018    0.50000000    0.00520000
opls_700-44    C    0.59898978    0.39049988    0.50000000    0.00520000
opls_750-45    N    0.98027010    0.49931002    0.50000000    -0.32350000
opls_750-46    N    0.50067984    0.48095000    0.50000000    -0.32750000
opls_750-47    N    0.51905017    0.01973013    0.50000000    -0.32750000
opls_520-48    N    0.39217998    0.68731005    0.50000000    -0.50240000
opls_520-49    N    0.31269033    0.70488031    0.50000000    -0.50100000
opls_520-50    N    0.29512011    0.60781992    0.50000000    -0.50270000
opls_520-51    N    0.60702010    0.30100015    0.50000000    -0.50230000
opls_520-52    N    0.69899995    0.30602016    0.50000000    -0.50240000
opls_520-53    N    0.69398017    0.39298013    0.50000000    -0.50240000
opls_144-54    H    0.00746999    0.58910015    0.50000000    0.10830000
opls_144-55    H    0.41090018    0.41837013    0.50000000    0.10830000
opls_144-56    H    0.58163006    0.99253017    0.50000000    0.10830000
opls_146-57    H    0.11015021    0.67147011    0.50000000    0.22220000
opls_526-58    H    0.21497017    0.70824026    0.50000000    0.22230000
opls_146-59    H    0.91448002    0.38618998    0.50000000    0.22220000
opls_526-60    H    0.80760000    0.32769986    0.50000000    0.22220000
opls_146-61    H    0.32853023    0.43868017    0.50000000    0.22220000
opls_526-62    H    0.29176007    0.50674003    0.50000000    0.22220000
opls_146-63    H    0.61380998    0.52828997    0.50000000    0.22220000
opls_526-64    H    0.67230010    0.47990027    0.50000000    0.22220000
opls_146-65    H    0.56132017    0.88985017    0.50000000    0.22220000
opls_526-66    H    0.49325991    0.78502015    0.50000000    0.22220000
opls_146-67    H    0.47170999    0.08552005    0.50000000    0.22220000
opls_526-68    H    0.52009989    0.19239987    0.50000000    0.22220000
opls_146-69    H    0.41628007    0.92210013    0.50000000    0.22220000
opls_526-70    H    0.34799025    0.81721015    0.50000000    0.22220000
opls_146-71    H    0.63945995    0.09530994    0.50000000    0.22230000
opls_526-72    H    0.68837005    0.20163984    0.50000000    0.22220000
opls_146-73    H    0.07789998    0.49417994    0.50000000    0.22220000
opls_526-74    H    0.18278993    0.53078006    0.50000000    0.22220000
opls_146-75    H    0.90469005    0.54415005    0.50000000    0.22230000
opls_526-76    H    0.79836030    0.48673024    0.50000000    0.22220000
opls_146-77    H    0.50581995    0.58371994    0.50000000    0.22220000
opls_526-78    H    0.46922004    0.65201024    0.50000000    0.22220000
opls_146-79    H    0.45584005    0.36053016    0.50000000    0.22230000
opls_526-80    H    0.51327004    0.31162992    0.50000000    0.22220000
