#======================================================================
# Crystal Data Generated By AuToFF
#----------------------------------------------------------------------

data_AuToFF_phase_1

_cell_length_a                         8.2400
_cell_length_b                         8.2400
_cell_length_c                         3.2800
_cell_angle_alpha                      90.00
_cell_angle_beta                       90.00
_cell_angle_gamma                      120.00
_symmetry_space_group_name_H-M_alt     'P 1'
_symmetry_space_group_IT_number        1

loop_
_space_group_symop_operation_xyz
   'x, y, z'

loop_
   _atom_site_label
   _atom_site_type_symbol
   _atom_site_fract_x
   _atom_site_fract_y
   _atom_site_fract_z
   _atom_site_charge
opls_521-0    C    0.84186061    0.33499065    0.50000000    0.11170000
opls_521-1    C    0.66501027    0.50687005    0.50000000    0.11170000
opls_521-2    C    0.49312912    0.15813931    0.50000000    0.11170000
opls_521-3    C    0.15813939    0.66500935    0.50000000    0.11170000
opls_521-4    C    0.33498973    0.49312995    0.50000000    0.11170000
opls_521-5    C    0.50687018    0.84185929    0.50000000    0.11170000
opls_521-6    C    0.33498911    0.84185929    0.50000000    0.11170000
opls_521-7    C    0.50686997    0.66500935    0.50000000    0.11170000
opls_521-8    C    0.15814022    0.49312995    0.50000000    0.11170000
opls_521-9    C    0.66501019    0.15813931    0.50000000    0.11170000
opls_521-10    C    0.49313003    0.33499065    0.50000000    0.11170000
opls_521-11    C    0.84185978    0.50687005    0.50000000    0.11170000
opls_520-12    N    0.32843936    0.32843940    0.50000000    -0.22340000
opls_520-13    N    0.67155947    0.00000000    0.50000000    -0.22340000
opls_520-14    N    0.99999996    0.67156060    0.50000000    -0.22340000
opls_520-15    N    0.67156064    0.67156060    0.50000000    -0.22340000
opls_520-16    N    0.32844053    0.00000000    0.50000000    -0.22340000
opls_520-17    N    0.00000004    0.32843940    0.50000000    -0.22340000
