#======================================================================
# Crystal Data Generated By AuToFF
#----------------------------------------------------------------------

data_AuToFF_phase_1

_cell_length_a                         28.8759
_cell_length_b                         48.2208
_cell_length_c                         11.0168
_cell_angle_alpha                      68.21
_cell_angle_beta                       38.63
_cell_angle_gamma                      83.62
_symmetry_space_group_name_H-M_alt     'P 1'
_symmetry_space_group_IT_number        1

loop_
_space_group_symop_operation_xyz
   'x, y, z'

loop_
   _atom_site_label
   _atom_site_type_symbol
   _atom_site_fract_x
   _atom_site_fract_y
   _atom_site_fract_z
   _atom_site_charge
opls_700-0    C    0.53986967    0.69812986    0.20945064    0.07140000
opls_145-1    C    0.54371024    0.72185000    0.07838938    -0.11390000
opls_145-2    C    0.70879025    0.69346002    0.86533937    -0.12290000
opls_700-3    C    0.65764007    0.66486003    0.05884971    0.07720000
opls_145-4    C    0.54796004    0.75205003    0.05930944    -0.11390000
opls_700-5    C    0.54858996    0.75886994    0.17114025    0.05870000
opls_145-6    C    0.54631967    0.73524985    0.29905042    -0.12190000
opls_145-7    C    0.54182010    0.70497006    0.31861954    -0.11440000
opls_145-8    C    0.68153990    0.64922980    0.13127068    -0.12370000
opls_145-9    C    0.75418989    0.66232999    0.01571943    -0.12150000
opls_700-10    C    0.80487040    0.69109996    0.82380918    0.00180000
opls_145-11    C    0.78156996    0.70653001    0.74934966    -0.12260000
opls_700-12    C    0.25454984    0.54001989    0.60597037    0.07700000
opls_145-13    C    0.20550002    0.50906994    0.77411006    -0.12550000
opls_145-14    C    0.14587980    0.49564005    0.83551041    -0.11870000
opls_700-15    C    0.13315007    0.51302006    0.73365968    0.00170000
opls_145-16    C    0.17958992    0.54445995    0.57371020    -0.12760000
opls_145-17    C    0.23951970    0.55795992    0.51165051    -0.12640000
opls_145-18    C    0.38027011    0.48304006    0.50297930    -0.11650000
opls_700-19    C    0.38123991    0.51172994    0.40266975    0.06460000
opls_145-20    C    0.38267973    0.51483000    0.26766064    -0.11440000
opls_145-21    C    0.38158973    0.48941983    0.23736048    -0.11390000
opls_700-22    C    0.37884011    0.46048003    0.34125958    0.06340000
opls_145-23    C    0.37849012    0.45746008    0.47389966    -0.12190000
opls_232-24    C    0.07327002    0.49827003    0.78899018    0.22740000
opls_142-25    C    0.55101018    0.79037004    0.15835921    0.07030000
opls_145-26    C    0.07647004    0.16253999    0.25664984    -0.12720000
opls_700-27    C    0.09852977    0.13948001    0.18504036    0.07810000
opls_145-28    C    0.16954009    0.13439003    0.07587964    -0.11350000
opls_145-29    C    0.21476982    0.15030990    0.05372060    -0.12450000
opls_700-30    C    0.19444978    0.17397996    0.11854036    0.06160000
opls_145-31    C    0.12430006    0.17985991    0.22302026    -0.12420000
opls_142-32    C    0.24908003    0.19213004    0.06991941    0.07320000
opls_145-33    C    0.34679983    0.22213007    0.03048994    -0.16160000
opls_145-34    C    0.28254983    0.23038005    0.10348026    0.19720000
opls_145-35    C    0.26292018    0.25509990    0.15920997    -0.16750000
opls_523-36    C    0.30292980    0.26970996    0.15774077    -0.12410000
opls_700-37    C    0.36396992    0.26008996    0.09742023    -0.00510000
opls_523-38    C    0.38778969    0.23719990    0.02376075    -0.12460000
opls_531-39    C    0.39848994    0.27153986    0.12852043    0.34240000
opls_531-40    C    0.40439983    0.30213991    0.24300004    0.36360000
opls_531-41    C    0.47829007    0.26697006    0.13772009    0.36630000
opls_523-42    C    0.55379026    0.22824993    0.04290940    -0.12390000
opls_700-43    C    0.53235003    0.25199994    0.10848993    -0.00460000
opls_523-44    C    0.56109001    0.26059006    0.15384036    -0.12700000
opls_145-45    C    0.60832967    0.24524003    0.13911076    -0.16420000
opls_145-46    C    0.62727986    0.22090006    0.08147011    0.19920000
opls_145-47    C    0.59890962    0.21231004    0.03509059    -0.16440000
opls_523-48    C    0.38760001    0.32771008    0.43011986    -0.11350000
opls_700-49    C    0.38384985    0.32690991    0.31205069    -0.01060000
opls_523-50    C    0.36703027    0.35143005    0.24473919    -0.11420000
opls_145-51    C    0.35967003    0.37734006    0.28136933    -0.16250000
opls_145-52    C    0.36753034    0.37885001    0.39002942    0.19900000
opls_145-53    C    0.37886011    0.35332988    0.47040009    -0.16350000
opls_142-54    C    0.69946991    0.18295007    0.01935970    0.07650000
opls_145-55    C    0.76536985    0.17962002    0.09403028    -0.09710000
opls_700-56    C    0.74878968    0.16990994    0.01592067    0.05980000
opls_145-57    C    0.80760004    0.16496996    0.10260987    -0.12100000
opls_700-58    C    0.83468990    0.14124004    0.03752016    0.07830000
opls_145-59    C    0.82531007    0.13430994    0.94329028    -0.12070000
opls_145-60    C    0.78210004    0.14810997    0.93528005    -0.11390000
opls_142-61    C    0.37724025    0.43400999    0.30651911    0.07260000
opls_145-62    C    0.79585995    0.04383996    0.22704992    -0.11440000
opls_700-63    C    0.78428002    0.07039989    0.26233030    0.08010000
opls_145-64    C    0.71082991    0.07513004    0.39399036    -0.11570000
opls_145-65    C    0.65215994    0.05446990    0.47975027    -0.12400000
opls_700-66    C    0.66430002    0.02859993    0.43893995    0.06070000
opls_145-67    C    0.73628018    0.02291996    0.31702928    -0.12190000
opls_142-68    C    0.59911021    0.00712991    0.53485009    0.03840000
opls_145-69    C    0.54484008    0.00034995    0.40423057    -0.12260000
opls_145-70    C    0.60312001    0.98509985    0.35783959    0.19200000
opls_145-71    C    0.63468979    0.96737998    0.24654051    -0.16980000
opls_523-72    C    0.61236996    0.96194999    0.18043971    -0.12220000
opls_700-73    C    0.55727990    0.97432001    0.22029947    -0.00210000
opls_523-74    C    0.52471018    0.99329998    0.32505914    -0.09450000
opls_531-75    C    0.53067988    0.96536001    0.16304984    0.34980000
opls_531-76    C    0.51977978    0.93037996    0.07816033    0.36430000
opls_531-77    C    0.45540004    0.96900998    0.13971938    0.34520000
opls_523-78    C    0.37778012    0.00692013    0.22868927    -0.12640000
opls_700-79    C    0.40159977    0.98305989    0.16329035    -0.00490000
opls_523-80    C    0.37152000    0.97170981    0.12889018    -0.10610000
opls_145-81    C    0.31610998    0.98277989    0.16813968    -0.16130000
opls_145-82    C    0.28810014    0.00642001    0.24817005    0.20210000
opls_145-83    C    0.32155012    0.01843008    0.27197988    -0.16360000
opls_523-84    C    0.49564969    0.88739989    0.04153019    -0.12640000
opls_700-85    C    0.53287976    0.90157997    0.04902015    0.00060000
opls_523-86    C    0.57887997    0.88674997    0.04380925    -0.11460000
opls_145-87    C    0.58311992    0.85749987    0.04655949    -0.16220000
opls_145-88    C    0.54147016    0.84238998    0.05457954    0.19590000
opls_145-89    C    0.50009986    0.85804998    0.04404975    -0.16470000
opls_142-90    C    0.19063988    0.03388009    0.39390038    0.01260000
opls_145-91    C    0.12255997    0.03195003    0.33117971    -0.09710000
opls_700-92    C    0.13215030    0.04164995    0.42478952    0.06390000
opls_145-93    C    0.08358009    0.04637989    0.30958022    -0.11550000
opls_700-94    C    0.05163022    0.06924004    0.38130912    0.07970000
opls_145-95    C    0.04893033    0.07416013    0.50502930    -0.12420000
opls_145-96    C    0.09073981    0.06122004    0.52101051    -0.11570000
opls_232-97    C    0.88130032    0.70469004    0.70451950    0.22670000
opls_716-98    C    0.84638000    0.09097999    0.17917012    -0.05720000
opls_716-99    C    0.04746034    0.12074999    0.22368942    -0.05720000
opls_716-100    C    0.02701030    0.08924010    0.30996960    -0.05720000
opls_716-101    C    0.86820999    0.12263007    0.08235032    -0.05750000
opls_716-102    C    0.93968002    0.10752997    0.14586940    -0.06870000
opls_716-103    C    0.97454000    0.10687993    0.18889987    -0.06870000
opls_716-104    C    0.37942980    0.53846998    0.44042060    -0.05330000
opls_716-105    C    0.52917987    0.66580998    0.24148994    -0.05610000
opls_716-106    C    0.58135978    0.65039001    0.17916030    -0.05720000
opls_716-107    C    0.32426035    0.55274991    0.51955931    -0.06010000
opls_716-108    C    0.42596005    0.58766003    0.40526948    -0.07260000
opls_716-109    C    0.46877996    0.61137989    0.34925019    -0.07260000
opls_700-110    C    0.06413986    0.69520992    0.69805045    0.07240000
opls_145-111    C    0.05428006    0.72162997    0.61704989    -0.11570000
opls_145-112    C    0.23557018    0.69642004    0.28484927    -0.12190000
opls_700-113    C    0.19039993    0.66647005    0.46514991    0.06720000
opls_145-114    C    0.06334016    0.74929995    0.61882994    -0.12370000
opls_700-115    C    0.08058982    0.75066003    0.70608032    0.06130000
opls_145-116    C    0.08856994    0.72399986    0.79113999    -0.11550000
opls_145-117    C    0.08045991    0.69652996    0.78720031    -0.11390000
opls_145-118    C    0.22244025    0.65001993    0.50931910    -0.12040000
opls_145-119    C    0.29822988    0.66335985    0.37546015    -0.11650000
opls_700-120    C    0.34367988    0.69318983    0.19377047    0.00090000
opls_145-121    C    0.31150973    0.70974001    0.15038006    -0.12290000
opls_700-122    C    0.75559001    0.53742983    0.15536028    0.07180000
opls_145-123    C    0.70453995    0.50807996    0.34282040    -0.12460000
opls_145-124    C    0.63360989    0.49531005    0.44892003    -0.12460000
opls_700-125    C    0.61190967    0.51178988    0.37107055    0.00180000
opls_145-126    C    0.66240016    0.54140990    0.18587967    -0.12680000
opls_145-127    C    0.73307976    0.55422995    0.08094002    -0.12290000
opls_145-128    C    0.88003000    0.47980002    0.09163997    -0.11870000
opls_700-129    C    0.87510014    0.50430998    0.98630930    0.06470000
opls_145-130    C    0.86819030    0.49944992    0.88244947    -0.11290000
opls_145-131    C    0.86670025    0.47049993    0.88341966    -0.11650000
opls_700-132    C    0.87271024    0.44604992    0.98618005    0.07730000
opls_145-133    C    0.87841977    0.45083993    0.09270015    -0.11390000
opls_232-134    C    0.53811022    0.49815997    0.47843977    0.23050000
opls_142-135    C    0.08811995    0.77923994    0.71634016    0.07240000
opls_145-136    C    0.69398015    0.17896995    0.65778004    -0.12370000
opls_700-137    C    0.70383021    0.15158997    0.63086984    0.08300000
opls_145-138    C    0.77544020    0.14566999    0.51105007    -0.11870000
opls_145-139    C    0.83338997    0.16536008    0.43287011    -0.11200000
opls_700-140    C    0.82183035    0.19173009    0.47007942    0.07160000
opls_145-141    C    0.75259997    0.19896002    0.57622976    -0.12390000
opls_142-142    C    0.87714980    0.20858006    0.42341031    0.07240000
opls_145-143    C    0.94834021    0.22543011    0.49772912    -0.17090000
opls_145-144    C    0.89029978    0.23639992    0.54614066    0.19890000
opls_145-145    C    0.85724047    0.25531014    0.65185907    -0.16230000
opls_523-146    C    0.87935034    0.26249001    0.71549922    -0.12510000
opls_700-147    C    0.93531010    0.25076996    0.67446967    -0.00120000
opls_523-148    C    0.97073029    0.23271004    0.56100933    -0.12740000
opls_531-149    C    0.95575034    0.25750000    0.75132931    0.34840000
opls_531-150    C    0.95175008    0.28661002    0.88972020    0.34750000
opls_531-151    C    0.02397039    0.25062012    0.79865940    0.34240000
opls_523-152    C    0.10603032    0.21432000    0.68783969    -0.12610000
opls_700-153    C    0.07857978    0.23631999    0.77034053    -0.00290000
opls_523-154    C    0.10630008    0.24543002    0.81672006    -0.12640000
opls_145-155    C    0.16270040    0.23388001    0.77218930    -0.16420000
opls_145-156    C    0.19290008    0.21330993    0.67954969    0.19710000
opls_145-157    C    0.16265017    0.20295010    0.64256943    -0.17160000
opls_523-158    C    0.96276011    0.32509007    0.97495983    -0.11440000
opls_700-159    C    0.92936003    0.31228002    0.95328999    -0.00010000
opls_523-160    C    0.87763998    0.32565992    0.97948032    -0.11460000
opls_145-161    C    0.86320988    0.35217008    0.01382976    -0.16350000
opls_145-162    C    0.90063002    0.36611003    0.02149969    0.19910000
opls_145-163    C    0.94831971    0.35167004    0.00925038    -0.16300000
opls_142-164    C    0.29720015    0.18875000    0.50989990    0.07280000
opls_145-165    C    0.37160992    0.19023003    0.55446011    -0.09230000
opls_700-166    C    0.35622998    0.17998006    0.47519052    0.05820000
opls_145-167    C    0.41142999    0.17533008    0.57138042    -0.11780000
opls_700-168    C    0.44073000    0.15189994    0.50285986    0.07960000
opls_145-169    C    0.43900008    0.14685994    0.38775036    -0.12600000
opls_145-170    C    0.39523023    0.16006008    0.38012951    -0.11570000
opls_142-171    C    0.87614012    0.41640998    0.97192000    0.07270000
opls_145-172    C    0.43680009    0.06754004    0.53957999    -0.12380000
opls_700-173    C    0.40239013    0.08211011    0.67348966    0.06790000
opls_145-174    C    0.32569006    0.08236010    0.81449990    -0.11620000
opls_145-175    C    0.28529011    0.07024993    0.81110995    -0.10770000
opls_700-176    C    0.31931017    0.05632005    0.67466927    0.05710000
opls_145-177    C    0.39519002    0.05479003    0.53993992    -0.12720000
opls_142-178    C    0.27647030    0.04602006    0.66146939    0.03850000
opls_145-179    C    0.14360028    0.00711000    0.85443982    -0.12200000
opls_145-180    C    0.20875009    0.99518007    0.78315920    0.18590000
opls_145-181    C    0.21393008    0.96651006    0.77602917    -0.16370000
opls_523-182    C    0.16884023    0.95123995    0.79489969    -0.12190000
opls_700-183    C    0.11460033    0.96328991    0.82898900    0.00030000
opls_523-184    C    0.09885021    0.98942994    0.86905981    -0.09410000
opls_531-185    C    0.07837042    0.95043995    0.80589904    0.34200000
opls_531-186    C    0.06679980    0.91629992    0.71795006    0.36220000
opls_531-187    C    0.00201008    0.95471995    0.78534009    0.34860000
opls_523-188    C    0.93306028    0.99545999    0.85242908    -0.11290000
opls_700-189    C    0.95150000    0.97040987    0.79967049    -0.00480000
opls_523-190    C    0.92435999    0.96123998    0.75192975    -0.12040000
opls_145-191    C    0.87894993    0.97657986    0.75875056    -0.16150000
opls_145-192    C    0.85941999    0.00275009    0.81536048    0.19450000
opls_145-193    C    0.88942014    0.01182002    0.85539038    -0.16980000
opls_523-194    C    0.07063987    0.88488990    0.57541990    -0.11450000
opls_700-195    C    0.08270994    0.88938982    0.66917041    -0.00070000
opls_523-196    C    0.10433016    0.86680990    0.72887906    -0.11650000
opls_145-197    C    0.10958011    0.83951994    0.70689999    -0.16160000
opls_145-198    C    0.09329017    0.83430993    0.62400976    0.19930000
opls_145-199    C    0.07688981    0.85783988    0.55097036    -0.16210000
opls_142-200    C    0.78671982    0.04022003    0.88373052    0.01260000
opls_145-201    C    0.72216027    0.04314005    0.80584996    -0.09230000
opls_700-202    C    0.73645054    0.05259012    0.88959913    0.05710000
opls_145-203    C    0.67924023    0.05725008    0.79865940    -0.12120000
opls_700-204    C    0.65047020    0.08063000    0.86708997    0.07430000
opls_145-205    C    0.65828004    0.08761012    0.96461001    -0.12680000
opls_145-206    C    0.70142047    0.07401017    0.97356917    -0.11390000
opls_232-207    C    0.42453954    0.70631989    0.05015068    0.22740000
opls_716-208    C    0.44904027    0.10043007    0.64861964    -0.05720000
opls_716-209    C    0.64034000    0.13076006    0.71947979    -0.05720000
opls_716-210    C    0.61721014    0.09906009    0.82127981    -0.05750000
opls_716-211    C    0.46756004    0.13195997    0.56757982    -0.05760000
opls_716-212    C    0.51409020    0.11396012    0.70601978    -0.06870000
opls_716-213    C    0.54608017    0.11355001    0.75693942    -0.06870000
opls_716-214    C    0.88409997    0.53560995    0.96969985    -0.05400000
opls_716-215    C    0.05573000    0.66609994    0.69370994    -0.05610000
opls_716-216    C    0.11126022    0.65181001    0.60234973    -0.05310000
opls_716-217    C    0.83131989    0.55100988    0.03975014    -0.05270000
opls_716-218    C    0.94664020    0.58951997    0.86129990    -0.08820000
opls_716-219    C    0.99419008    0.61384986    0.78614013    -0.08820000
opls_750-220    N    0.23280037    0.21283000    0.13874919    -0.32120000
opls_520-221    N    0.44956999    0.25844006    0.09733025    -0.44390000
opls_520-222    N    0.37624990    0.29355991    0.20075979    -0.45330000
opls_520-223    N    0.45488010    0.28863995    0.21198001    -0.44330000
opls_750-224    N    0.67427032    0.20533013    0.07500924    -0.32890000
opls_750-225    N    0.36705980    0.40608993    0.41582054    -0.33610000
opls_750-226    N    0.62649976    0.98869997    0.42146010    -0.22460000
opls_520-227    N    0.48351975    0.97911993    0.17789070    -0.45360000
opls_520-228    N    0.54823965    0.94104989    0.11317075    -0.44700000
opls_520-229    N    0.47319961    0.94434980    0.09223060    -0.44730000
opls_750-230    N    0.23049994    0.01514989    0.29779064    -0.28950000
opls_750-231    N    0.54051003    0.81138990    0.07168964    -0.32900000
opls_750-232    N    0.85398988    0.22485986    0.52519068    -0.34060000
opls_520-233    N    0.00251991    0.24345989    0.73656044    -0.45330000
opls_520-234    N    0.93046017    0.27892993    0.82884012    -0.43340000
opls_520-235    N    0.99888979    0.27246993    0.87321054    -0.45210000
opls_750-236    N    0.25350021    0.20340006    0.62741935    -0.33030000
opls_750-237    N    0.89220979    0.39487005    0.03895010    -0.32660000
opls_750-238    N    0.26603003    0.01300009    0.70939992    -0.22230000
opls_520-239    N    0.03122008    0.96440005    0.82163974    -0.44700000
opls_520-240    N    0.09592017    0.92619998    0.75418918    -0.45460000
opls_520-241    N    0.02044009    0.93074990    0.73275002    -0.44220000
opls_750-242    N    0.81350010    0.01680005    0.82596062    -0.29790000
opls_750-243    N    0.09030021    0.80543993    0.61717914    -0.34060000
opls_278-244    O    0.92784990    0.72907998    0.53341034    -0.35850000
opls_278-245    O    0.03100009    0.47127003    0.93171994    -0.35810000
opls_278-246    O    0.46438975    0.73281985    0.89808055    -0.36200000
opls_278-247    O    0.49108018    0.47353005    0.64711936    -0.35100000
opls_633-248    S    0.93829976    0.14349988    0.01789051    0.08270000
opls_633-249    S    0.97438995    0.07028004    0.31619978    0.08270000
opls_633-250    S    0.01786995    0.14202002    0.12962969    0.08270000
opls_633-251    S    0.89160986    0.07155000    0.22463998    0.06870000
opls_633-252    S    0.33450008    0.58816995    0.52560952    0.08270000
opls_633-253    S    0.55912968    0.61056992    0.23485074    0.08270000
opls_633-254    S    0.43950019    0.64594005    0.37933929    0.08270000
opls_633-255    S    0.45868988    0.55436002    0.35671070    0.08270000
opls_633-256    S    0.51714000    0.15067000    0.57058038    0.08270000
opls_633-257    S    0.54524045    0.07781011    0.89306925    0.08340000
opls_633-258    S    0.59406026    0.14976995    0.67671927    0.08270000
opls_633-259    S    0.47229989    0.07885000    0.76098053    0.08270000
opls_633-260    S    0.85259997    0.58986999    0.99750989    0.08270000
opls_633-261    S    0.08983019    0.61363990    0.63898969    0.08270000
opls_633-262    S    0.96520998    0.64779987    0.83009990    0.08280000
opls_633-263    S    0.97389027    0.55469993    0.83295976    0.08270000
opls_146-264    H    0.54355992    0.71703996    0.99039950    0.12210000
opls_146-265    H    0.69255012    0.70546004    0.80302936    0.11780000
opls_146-266    H    0.55078956    0.76999995    0.95708078    0.11960000
opls_146-267    H    0.54710013    0.74006999    0.38590977    0.12100000
opls_146-268    H    0.53852033    0.68693993    0.42150918    0.12060000
opls_146-269    H    0.64373968    0.62689993    0.27792048    0.12070000
opls_146-270    H    0.77130011    0.64992003    0.07497979    0.11640000
opls_146-271    H    0.81983004    0.72863000    0.60110959    0.11870000
opls_146-272    H    0.21503003    0.49511010    0.85265977    0.11730000
opls_146-273    H    0.11060001    0.47142994    0.96031040    0.12050000
opls_146-274    H    0.17031002    0.55836006    0.49414939    0.11570000
opls_146-275    H    0.27629994    0.58195007    0.38333950    0.11830000
opls_146-276    H    0.37963021    0.48030001    0.60638921    0.12140000
opls_146-277    H    0.38428008    0.53690008    0.18679915    0.12420000
opls_146-278    H    0.38204986    0.49228005    0.13416981    0.12180000
opls_146-279    H    0.37794022    0.43559002    0.55226940    0.12760000
opls_144-280    H    0.06629988    0.51128993    0.70235006    0.10830000
opls_144-281    H    0.55803995    0.79506997    0.23275002    0.11000000
opls_146-282    H    0.02160012    0.16678996    0.34162934    0.11520000
opls_146-283    H    0.18913030    0.11737994    0.01304935    0.11790000
opls_146-284    H    0.26633964    0.14432984    0.98302079    0.12410000
opls_146-285    H    0.10623005    0.19759013    0.27958928    0.11550000
opls_144-286    H    0.30441962    0.18766001    0.97081074    0.10220000
opls_146-287    H    0.36445975    0.20312997    0.98810081    0.13180000
opls_146-288    H    0.21399001    0.26189991    0.21449957    0.12070000
opls_526-289    H    0.28351992    0.28751003    0.21340995    0.11790000
opls_526-290    H    0.43570002    0.22961987    0.97163042    0.11750000
opls_526-291    H    0.53204974    0.22084999    0.00889044    0.11800000
opls_526-292    H    0.54671970    0.27904993    0.20196068    0.12450000
opls_146-293    H    0.63004971    0.25224992    0.17398048    0.11940000
opls_146-294    H    0.60821002    0.19259002    0.00196984    0.09490000
opls_526-295    H    0.39962013    0.30887998    0.48601972    0.12120000
opls_526-296    H    0.36363016    0.35126008    0.15404978    0.11990000
opls_146-297    H    0.34853973    0.39598991    0.22203044    0.12070000
opls_146-298    H    0.38432038    0.35391004    0.55619926    0.12000000
opls_144-299    H    0.68683989    0.17389001    0.96915012    0.10510000
opls_146-300    H    0.74354001    0.19742997    0.14960947    0.11660000
opls_146-301    H    0.81675027    0.17163995    0.16706969    0.10340000
opls_146-302    H    0.84892003    0.11712001    0.88313008    0.11980000
opls_146-303    H    0.77402029    0.14142006    0.86765933    0.11570000
opls_144-304    H    0.38705003    0.43880001    0.18267950    0.10330000
opls_146-305    H    0.85130010    0.03931989    0.13103017    0.11570000
opls_146-306    H    0.69852001    0.09435002    0.43501009    0.11590000
opls_146-307    H    0.59605045    0.05825004    0.58160918    0.11840000
opls_146-308    H    0.74681999    0.00261999    0.28730011    0.12250000
opls_144-309    H    0.55542043    0.99158007    0.71103927    0.05710000
opls_146-310    H    0.49041017    0.99264995    0.58317000    0.04780000
opls_146-311    H    0.67758962    0.95705994    0.21114071    0.10980000
opls_526-312    H    0.63924004    0.94781998    0.09514936    0.12060000
opls_526-313    H    0.48198985    0.00285987    0.35701992    0.11780000
opls_526-314    H    0.40160977    0.01645007    0.25118043    0.12210000
opls_526-315    H    0.38890982    0.95349993    0.07787074    0.12360000
opls_146-316    H    0.29155986    0.97316001    0.14771980    0.12260000
opls_146-317    H    0.30507026    0.03656011    0.32368975    0.12520000
opls_526-318    H    0.46075996    0.89842989    0.04180014    0.12050000
opls_526-319    H    0.61004006    0.89726989    0.04396958    0.12140000
opls_146-320    H    0.61855975    0.84679981    0.04456021    0.12630000
opls_146-321    H    0.46874026    0.84702992    0.04603922    0.12450000
opls_144-322    H    0.20121035    0.04367011    0.44673913    0.12700000
opls_146-323    H    0.14895976    0.01514005    0.26892042    0.12070000
opls_146-324    H    0.08318035    0.04101000    0.22323950    0.12000000
opls_146-325    H    0.01966016    0.09015017    0.57456914    0.11830000
opls_146-326    H    0.09387022    0.06788000    0.59872910    0.11880000
opls_144-327    H    0.89727994    0.69280992    0.76796004    0.06800000
opls_146-328    H    0.04098996    0.72095985    0.54953061    0.12250000
opls_146-329    H    0.21218008    0.70925996    0.24650943    0.11640000
opls_146-330    H    0.05652036    0.76950993    0.55307926    0.12220000
opls_146-331    H    0.10162046    0.72459998    0.85973908    0.11830000
opls_146-332    H    0.08662976    0.67621987    0.85458053    0.12450000
opls_146-333    H    0.18849991    0.62692992    0.64806992    0.11950000
opls_146-334    H    0.32147993    0.65041998    0.41379999    0.12000000
opls_146-335    H    0.34546968    0.73280990    0.01110079    0.11830000
opls_146-336    H    0.71970974    0.49508988    0.40700045    0.11700000
opls_146-337    H    0.59539008    0.47258002    0.59247928    0.12070000
opls_146-338    H    0.64673981    0.55459996    0.12342078    0.11650000
opls_146-339    H    0.77112008    0.57709998    0.93831988    0.11830000
opls_146-340    H    0.88603002    0.48323988    0.17105026    0.11780000
opls_146-341    H    0.86607993    0.51823005    0.79611039    0.12210000
opls_146-342    H    0.86270020    0.46745002    0.79916985    0.12530000
opls_146-343    H    0.88329009    0.43249007    0.17267980    0.12390000
opls_144-344    H    0.52502978    0.51019999    0.40736039    0.11610000
opls_144-345    H    0.08963001    0.77735987    0.81404016    0.12700000
opls_146-346    H    0.64061994    0.18468993    0.74291006    0.12540000
opls_146-347    H    0.78591001    0.12544989    0.48062066    0.11930000
opls_146-348    H    0.88591004    0.15942011    0.35293954    0.11970000
opls_146-349    H    0.74288035    0.21947006    0.60360951    0.12070000
opls_144-350    H    0.93201984    0.20352004    0.32874032    0.10990000
opls_146-351    H    0.97437010    0.21035006    0.42012997    0.12050000
opls_146-352    H    0.81139022    0.26319012    0.69426948    0.12520000
opls_526-353    H    0.85092005    0.27652990    0.80207062    0.11810000
opls_526-354    H    0.01516007    0.22385998    0.52308014    0.11980000
opls_526-355    H    0.08454008    0.20630000    0.65484982    0.11650000
opls_526-356    H    0.08553008    0.26188001    0.88375997    0.12140000
opls_146-357    H    0.18458008    0.24159996    0.80495993    0.11650000
opls_146-358    H    0.18213004    0.18615009    0.57835993    0.12070000
opls_526-359    H    0.00238044    0.31531005    0.95706933    0.12070000
opls_526-360    H    0.84956978    0.31600996    0.96850060    0.12070000
opls_146-361    H    0.82309989    0.36164984    0.03295060    0.11980000
opls_146-362    H    0.97687965    0.36188987    0.01734079    0.12460000
opls_144-363    H    0.29067002    0.18249996    0.43813991    0.09990000
opls_146-364    H    0.34818000    0.20781997    0.61168028    0.11830000
opls_146-365    H    0.41588027    0.18116012    0.64817954    0.12410000
opls_146-366    H    0.46677019    0.13103999    0.31710944    0.10450000
opls_146-367    H    0.38895974    0.15337989    0.30903049    0.12180000
opls_144-368    H    0.87070020    0.41393995    0.88938971    0.12810000
opls_146-369    H    0.49670982    0.06764992    0.42662029    0.11940000
opls_146-370    H    0.29808029    0.09334998    0.91998927    0.11400000
opls_146-371    H    0.22928042    0.07356006    0.90466904    0.12020000
opls_146-372    H    0.42371002    0.04519004    0.42740070    0.11980000
opls_144-373    H    0.21960013    0.05085003    0.77161013    0.06200000
opls_146-374    H    0.10310061    0.00697005    0.01404900    0.04780000
opls_146-375    H    0.25888992    0.95737992    0.73372021    0.11600000
opls_526-376    H    0.18072983    0.93078997    0.76707001    0.12520000
opls_526-377    H    0.05577986    0.99872992    0.90158994    0.12050000
opls_526-378    H    0.95385998    0.00299982    0.88801050    0.12460000
opls_526-379    H    0.93844004    0.94221994    0.70867023    0.11960000
opls_146-380    H    0.85846973    0.96938994    0.72132038    0.12000000
opls_146-381    H    0.88148028    0.03197005    0.88377960    0.10210000
opls_526-382    H    0.05451964    0.90192980    0.52573059    0.12440000
opls_526-383    H    0.11481983    0.86979994    0.79940054    0.11650000
opls_146-384    H    0.12606987    0.82274002    0.75592996    0.12730000
opls_146-385    H    0.06596014    0.85449995    0.48212913    0.11640000
opls_144-386    H    0.80103026    0.05015014    0.92783917    0.11900000
opls_146-387    H    0.74547040    0.02574015    0.74741909    0.12630000
opls_146-388    H    0.67052995    0.05037997    0.73373003    0.09970000
opls_146-389    H    0.63363038    0.10468995    0.02586966    0.11970000
opls_146-390    H    0.70814023    0.08054008    0.04412010    0.12150000
opls_144-391    H    0.44994985    0.69203988    0.07717050    0.06810000
