#======================================================================
# Crystal Data Generated By AuToFF
#----------------------------------------------------------------------

data_AuToFF_phase_1

_cell_length_a                         56.9010
_cell_length_b                         56.9010
_cell_length_c                         3.8107
_cell_angle_alpha                      90.00
_cell_angle_beta                       90.00
_cell_angle_gamma                      120.00
_symmetry_space_group_name_H-M_alt     'P 1'
_symmetry_space_group_IT_number        1

loop_
_space_group_symop_operation_xyz
   'x, y, z'

loop_
   _atom_site_label
   _atom_site_type_symbol
   _atom_site_fract_x
   _atom_site_fract_y
   _atom_site_fract_z
   _atom_site_charge
opls_700-0    C    0.43666013    0.96991013    0.64697037    0.02890000
opls_700-1    C    0.46285005    0.97223004    0.62943029    0.03330000
opls_700-2    C    0.48671993    0.99866999    0.61675020    -0.02760000
opls_700-3    C    0.48411002    0.02249009    0.59991078    0.03570000
opls_700-4    C    0.45772988    0.01959994    0.57440890    0.03150000
opls_145-5    C    0.43518996    0.99361009    0.61090876    -0.17360000
opls_145-6    C    0.46650999    0.94922004    0.61872097    -0.11710000
opls_145-7    C    0.49167005    0.95173010    0.61043903    -0.11720000
opls_700-8    C    0.41096010    0.94388010    0.68560894    0.07050000
opls_145-9    C    0.38704010    0.94028010    0.52205894    -0.12860000
opls_145-10    C    0.36280995    0.91591005    0.53788018    -0.12630000
opls_700-11    C    0.36114006    0.89318010    0.71189020    0.09930000
opls_145-12    C    0.38454998    0.89704006    0.89045057    -0.12930000
opls_145-13    C    0.40860004    0.92182003    0.88349122    -0.12800000
opls_142-14    C    0.67884002    0.54502999    0.22261002    -0.09490000
opls_142-15    C    0.85971994    0.54593994    0.52409006    -0.09260000
opls_142-16    C    0.86643997    0.52921006    0.69955126    -0.13520000
opls_700-17    C    0.58959006    0.54711004    0.51197943    0.07150000
opls_145-18    C    0.59478998    0.52979998    0.29981893    -0.12880000
opls_145-19    C    0.62078005    0.53399011    0.25519983    -0.12860000
opls_700-20    C    0.64340004    0.55650009    0.40984071    0.09620000
opls_145-21    C    0.63848004    0.57474992    0.60347968    -0.12810000
opls_145-22    C    0.61233993    0.57006992    0.65600021    -0.12890000
opls_142-23    C    0.67087006    0.56143011    0.38079880    -0.13100000
opls_142-24    C    0.45911999    0.29178000    0.49189913    -0.12920000
opls_700-25    C    0.44255992    0.26801996    0.31477944    -0.00080000
opls_700-26    C    0.44875001    0.24611006    0.26213032    0.06380000
opls_423-27    C    0.41763000    0.26405001    0.17074028    0.24200000
opls_145-28    C    0.42786008    0.21950005    0.18634896    -0.12760000
opls_145-29    C    0.43353005    0.19865006    0.13828955    -0.12690000
opls_700-30    C    0.46035000    0.20363000    0.15626000    0.06530000
opls_145-31    C    0.48138006    0.23038002    0.22057102    -0.12860000
opls_145-32    C    0.47563006    0.25109000    0.27646889    -0.12860000
opls_142-33    C    0.44933013    0.15554010    0.23157950    -0.12910000
opls_700-34    C    0.46643002    0.18152000    0.11486079    0.00150000
opls_423-35    C    0.49179993    0.18814003    0.95851943    0.23620000
opls_700-36    C    0.03008998    0.46674998    0.64697037    0.02890000
opls_700-37    C    0.02777006    0.49062000    0.62943029    0.03330000
opls_700-38    C    0.00133001    0.48805007    0.61675020    -0.02760000
opls_700-39    C    0.97751009    0.46162007    0.59991078    0.03570000
opls_700-40    C    0.98039992    0.43812994    0.57440890    0.03150000
opls_145-41    C    0.00639007    0.44157998    0.61090876    -0.17360000
opls_145-42    C    0.05077997    0.51729007    0.61872097    -0.11710000
opls_145-43    C    0.04827006    0.53994007    0.61043903    -0.11720000
opls_700-44    C    0.05611989    0.46707994    0.68560894    0.07050000
opls_145-45    C    0.05971996    0.44676001    0.52205894    -0.12860000
opls_145-46    C    0.08409007    0.44690003    0.53788018    -0.12640000
opls_700-47    C    0.10682005    0.46796006    0.71189020    0.09930000
opls_145-48    C    0.10295997    0.48751007    0.89045057    -0.12930000
opls_145-49    C    0.07818004    0.48677993    0.88349122    -0.12800000
opls_142-50    C    0.45497006    0.13380999    0.22261002    -0.09490000
opls_142-51    C    0.45406000    0.31378000    0.52409006    -0.09260000
opls_142-52    C    0.47078998    0.33722996    0.69955126    -0.13520000
opls_700-53    C    0.45289009    0.04248006    0.51197943    0.07150000
opls_145-54    C    0.47019998    0.06499003    0.29981893    -0.12880000
opls_145-55    C    0.46601004    0.08678995    0.25519983    -0.12860000
opls_700-56    C    0.44350006    0.08689994    0.40984071    0.09620000
opls_145-57    C    0.42525002    0.06373003    0.60347968    -0.12810000
opls_145-58    C    0.42992994    0.04227002    0.65600021    -0.12890000
opls_142-59    C    0.43856999    0.10943995    0.38079880    -0.13100000
opls_142-60    C    0.70821999    0.16733996    0.49189913    -0.12920000
opls_700-61    C    0.73197992    0.17453997    0.31477944    -0.00080000
opls_700-62    C    0.75389013    0.20264010    0.26213032    0.06380000
opls_423-63    C    0.73594994    0.15357999    0.17074028    0.24200000
opls_145-64    C    0.78049989    0.20835993    0.18634896    -0.12770000
opls_145-65    C    0.80134996    0.23488003    0.13828955    -0.12690000
opls_700-66    C    0.79637001    0.25671992    0.15626000    0.06530000
opls_145-67    C    0.76962001    0.25100010    0.22057102    -0.12860000
opls_145-68    C    0.74890998    0.22454006    0.27646889    -0.12860000
opls_142-69    C    0.84446009    0.29379003    0.23157950    -0.12920000
opls_700-70    C    0.81848000    0.28490995    0.11486079    0.00150000
opls_423-71    C    0.81186006    0.30366001    0.95851943    0.23620000
opls_700-72    C    0.53324999    0.56334010    0.64697037    0.02890000
opls_700-73    C    0.50938006    0.53714996    0.62943029    0.03330000
opls_700-74    C    0.51194989    0.51327994    0.61675020    -0.02760000
opls_700-75    C    0.53837999    0.51589004    0.59991078    0.03570000
opls_700-76    C    0.56186992    0.54226992    0.57440890    0.03150000
opls_145-77    C    0.55841997    0.56480993    0.61090876    -0.17360000
opls_145-78    C    0.48270997    0.53349009    0.61872097    -0.11710000
opls_145-79    C    0.46005999    0.50833003    0.61043903    -0.11720000
opls_700-80    C    0.53292000    0.58903995    0.68560894    0.07050000
opls_145-81    C    0.55324004    0.61296010    0.52205894    -0.12860000
opls_145-82    C    0.55309998    0.63718992    0.53788018    -0.12640000
opls_700-83    C    0.53203999    0.63886004    0.71189020    0.09930000
opls_145-84    C    0.51248998    0.61545007    0.89045057    -0.12930000
opls_145-85    C    0.51322010    0.59140005    0.88349122    -0.12800000
opls_142-86    C    0.86618993    0.32116001    0.22261002    -0.09490000
opls_142-87    C    0.68622006    0.14028006    0.52409006    -0.09260000
opls_142-88    C    0.66277004    0.13355998    0.69955126    -0.13520000
opls_700-89    C    0.95752012    0.41041010    0.51197943    0.07150000
opls_145-90    C    0.93501005    0.40520998    0.29981893    -0.12880000
opls_145-91    C    0.91320990    0.37921994    0.25519983    -0.12860000
opls_700-92    C    0.91309990    0.35659997    0.40984071    0.09620000
opls_145-93    C    0.93626994    0.36152005    0.60347968    -0.12810000
opls_145-94    C    0.95772996    0.38766006    0.65600021    -0.12890000
opls_142-95    C    0.89055995    0.32912995    0.38079880    -0.13100000
opls_142-96    C    0.83266002    0.54088004    0.49189913    -0.12920000
opls_700-97    C    0.82545999    0.55744007    0.31477944    -0.00080000
opls_700-98    C    0.79735997    0.55125005    0.26213032    0.06380000
opls_423-99    C    0.84642006    0.58237000    0.17074028    0.24200000
opls_145-100    C    0.79164004    0.57214002    0.18634896    -0.12770000
opls_145-101    C    0.76512009    0.56647011    0.13828955    -0.12690000
opls_700-102    C    0.74327999    0.53965008    0.15626000    0.06530000
opls_145-103    C    0.74900003    0.51862008    0.22057102    -0.12860000
opls_145-104    C    0.77545996    0.52436994    0.27646889    -0.12860000
opls_142-105    C    0.70621006    0.55067007    0.23157950    -0.12920000
opls_700-106    C    0.71508997    0.53357005    0.11486079    0.00150000
opls_423-107    C    0.69634001    0.50819995    0.95851943    0.23620000
opls_700-108    C    0.56333997    0.03009008    0.64697037    0.02890000
opls_700-109    C    0.53714995    0.02776996    0.62943029    0.03330000
opls_700-110    C    0.51328007    0.00133001    0.61675020    -0.02760000
opls_700-111    C    0.51589008    0.97751012    0.59991078    0.03570000
opls_700-112    C    0.54227012    0.98040006    0.57440890    0.03150000
opls_145-113    C    0.56481004    0.00638991    0.61090876    -0.17360000
opls_145-114    C    0.53349001    0.05077996    0.61872097    -0.11710000
opls_145-115    C    0.50833006    0.04827010    0.61043903    -0.11720000
opls_700-116    C    0.58904000    0.05612010    0.68560894    0.07050000
opls_145-117    C    0.61295990    0.05971990    0.52205894    -0.12860000
opls_145-118    C    0.63719005    0.08408995    0.53788018    -0.12640000
opls_700-119    C    0.63886004    0.10682010    0.71189020    0.09930000
opls_145-120    C    0.61545002    0.10295994    0.89045057    -0.12930000
opls_145-121    C    0.59139996    0.07817997    0.88349122    -0.12800000
opls_142-122    C    0.32115998    0.45497001    0.22261002    -0.09490000
opls_142-123    C    0.14028006    0.45406006    0.52409006    -0.09260000
opls_142-124    C    0.13356003    0.47078994    0.69955126    -0.13520000
opls_700-125    C    0.41040994    0.45288996    0.51197943    0.07150000
opls_145-126    C    0.40521002    0.47020002    0.29981893    -0.12880000
opls_145-127    C    0.37922005    0.46601009    0.25519983    -0.12860000
opls_700-128    C    0.35660006    0.44350011    0.40984071    0.09620000
opls_145-129    C    0.36151996    0.42525008    0.60347968    -0.12810000
opls_145-130    C    0.38766007    0.42993008    0.65600021    -0.12890000
opls_142-131    C    0.32913004    0.43857010    0.38079880    -0.13100000
opls_142-132    C    0.54088001    0.70822000    0.49189913    -0.12920000
opls_700-133    C    0.55744008    0.73198004    0.31477944    -0.00080000
opls_700-134    C    0.55124999    0.75388994    0.26213032    0.06380000
opls_423-135    C    0.58237000    0.73594999    0.17074028    0.24200000
opls_145-136    C    0.57213992    0.78049995    0.18634896    -0.12770000
opls_145-137    C    0.56646995    0.80134994    0.13828955    -0.12690000
opls_700-138    C    0.53965000    0.79637000    0.15626000    0.06530000
opls_145-139    C    0.51861994    0.76961998    0.22057102    -0.12860000
opls_145-140    C    0.52436994    0.74891000    0.27646889    -0.12860000
opls_142-141    C    0.55066997    0.84446010    0.23157950    -0.12920000
opls_700-142    C    0.53356998    0.81848000    0.11486079    0.00150000
opls_423-143    C    0.50820007    0.81185997    0.95851943    0.23620000
opls_700-144    C    0.96991002    0.53325002    0.64697037    0.02890000
opls_700-145    C    0.97222994    0.50938000    0.62943029    0.03330000
opls_700-146    C    0.99866999    0.51194993    0.61675020    -0.02760000
opls_700-147    C    0.02248991    0.53837993    0.59991078    0.03570000
opls_700-148    C    0.01960008    0.56187006    0.57440890    0.03150000
opls_145-149    C    0.99360993    0.55842002    0.61090876    -0.17350000
opls_145-150    C    0.94922003    0.48270993    0.61872097    -0.11710000
opls_145-151    C    0.95172994    0.46005993    0.61043903    -0.11720000
opls_700-152    C    0.94388011    0.53292006    0.68560894    0.07050000
opls_145-153    C    0.94028004    0.55323999    0.52205894    -0.12860000
opls_145-154    C    0.91590993    0.55309997    0.53788018    -0.12640000
opls_700-155    C    0.89317995    0.53203994    0.71189020    0.09930000
opls_145-156    C    0.89704003    0.51248993    0.89045057    -0.12930000
opls_145-157    C    0.92181996    0.51322007    0.88349122    -0.12800000
opls_142-158    C    0.54502994    0.86619001    0.22261002    -0.09490000
opls_142-159    C    0.54594000    0.68622000    0.52409006    -0.09260000
opls_142-160    C    0.52921002    0.66277004    0.69955126    -0.13520000
opls_700-161    C    0.54710991    0.95751994    0.51197943    0.07150000
opls_145-162    C    0.52980002    0.93500997    0.29981893    -0.12880000
opls_145-163    C    0.53398996    0.91321005    0.25519983    -0.12850000
opls_700-164    C    0.55649994    0.91310006    0.40984071    0.09620000
opls_145-165    C    0.57474998    0.93626997    0.60347968    -0.12810000
opls_145-166    C    0.57007006    0.95772998    0.65600021    -0.12890000
opls_142-167    C    0.56143001    0.89056005    0.38079880    -0.13100000
opls_142-168    C    0.29178001    0.83266004    0.49189913    -0.12910000
opls_700-169    C    0.26802008    0.82546003    0.31477944    -0.00080000
opls_700-170    C    0.24610997    0.79736010    0.26213032    0.06380000
opls_423-171    C    0.26405006    0.84642001    0.17074028    0.24200000
opls_145-172    C    0.21950011    0.79164007    0.18634896    -0.12770000
opls_145-173    C    0.19865004    0.76511997    0.13828955    -0.12690000
opls_700-174    C    0.20362999    0.74328008    0.15626000    0.06530000
opls_145-175    C    0.23038009    0.74900011    0.22057102    -0.12860000
opls_145-176    C    0.25109002    0.77545994    0.27646889    -0.12860000
opls_142-177    C    0.15553991    0.70620997    0.23157950    -0.12910000
opls_700-178    C    0.18152000    0.71509005    0.11486079    0.00150000
opls_423-179    C    0.18813994    0.69633999    0.95851943    0.23620000
opls_700-180    C    0.46675012    0.43666010    0.64697037    0.02890000
opls_700-181    C    0.49061994    0.46285004    0.62943029    0.03330000
opls_700-182    C    0.48805011    0.48672006    0.61675020    -0.02760000
opls_700-183    C    0.46162001    0.48410996    0.59991078    0.03570000
opls_700-184    C    0.43813008    0.45773008    0.57440890    0.03150000
opls_145-185    C    0.44158003    0.43519007    0.61090876    -0.17360000
opls_145-186    C    0.51729013    0.46651011    0.61872097    -0.11710000
opls_145-187    C    0.53994001    0.49166997    0.61043903    -0.11720000
opls_700-188    C    0.46708000    0.41096005    0.68560894    0.07050000
opls_145-189    C    0.44676007    0.38704010    0.52205894    -0.12860000
opls_145-190    C    0.44690002    0.36281008    0.53788018    -0.12640000
opls_700-191    C    0.46796001    0.36113996    0.71189020    0.09930000
opls_145-192    C    0.48751002    0.38454993    0.89045057    -0.12930000
opls_145-193    C    0.48677990    0.40859995    0.88349122    -0.12800000
opls_142-194    C    0.13381007    0.67883999    0.22261002    -0.09490000
opls_142-195    C    0.31377994    0.85971994    0.52409006    -0.09260000
opls_142-196    C    0.33722996    0.86644002    0.69955126    -0.13520000
opls_700-197    C    0.04247998    0.58959010    0.51197943    0.07150000
opls_145-198    C    0.06498995    0.59479002    0.29981893    -0.12880000
opls_145-199    C    0.08679010    0.62078006    0.25519983    -0.12860000
opls_700-200    C    0.08690010    0.64340003    0.40984071    0.09620000
opls_145-201    C    0.06373006    0.63847995    0.60347968    -0.12810000
opls_145-202    C    0.04227004    0.61233994    0.65600021    -0.12890000
opls_142-203    C    0.10944005    0.67087005    0.38079880    -0.13090000
opls_142-204    C    0.16733998    0.45911996    0.49189913    -0.12920000
opls_700-205    C    0.17454001    0.44255993    0.31477944    -0.00080000
opls_700-206    C    0.20264003    0.44874995    0.26213032    0.06380000
opls_423-207    C    0.15357994    0.41763000    0.17074028    0.24200000
opls_145-208    C    0.20835996    0.42785998    0.18634896    -0.12770000
opls_145-209    C    0.23488002    0.43353009    0.13828955    -0.12680000
opls_700-210    C    0.25672001    0.46034992    0.15626000    0.06530000
opls_145-211    C    0.25099997    0.48137992    0.22057102    -0.12850000
opls_145-212    C    0.22454004    0.47563006    0.27646889    -0.12860000
opls_142-213    C    0.29378994    0.44932993    0.23157950    -0.12920000
opls_700-214    C    0.28491003    0.46642995    0.11486079    0.00150000
opls_423-215    C    0.30365999    0.49180005    0.95851943    0.23620000
opls_146-216    H    0.41518012    0.99170010    0.60748944    0.11110000
opls_146-217    H    0.44885006    0.92898006    0.61344110    0.11620000
opls_146-218    H    0.49309997    0.93338996    0.61318131    0.11300000
opls_146-219    H    0.38790000    0.95653004    0.36147952    0.10830000
opls_146-220    H    0.34529005    0.91404998    0.39729971    0.10830000
opls_146-221    H    0.38347012    0.88029009    0.04283990    0.10920000
opls_146-222    H    0.42565005    0.92438001    0.04170100    0.11110000
opls_144-223    H    0.66388995    0.52615006    0.09676962    0.10850000
opls_144-224    H    0.87551000    0.56407004    0.39326895    0.10980000
opls_146-225    H    0.57810000    0.51327000    0.15824127    0.11150000
opls_146-226    H    0.62375000    0.52017007    0.08755084    0.10730000
opls_146-227    H    0.65556999    0.59227001    0.72696880    0.10930000
opls_146-228    H    0.60936988    0.58367992    0.82769045    0.10810000
opls_144-229    H    0.48852000    0.33881992    0.83425880    0.06500000
opls_144-230    H    0.68648002    0.57988997    0.50932899    0.12350000
opls_144-231    H    0.47742000    0.29390996    0.61528066    0.10850000
opls_144-232    H    0.43055988    0.15171992    0.35989976    0.09560000
opls_146-233    H    0.40700996    0.21536999    0.16519012    0.10920000
opls_146-234    H    0.41707993    0.17828000    0.07709870    0.10800000
opls_146-235    H    0.49230010    0.27160008    0.32526045    0.10790000
opls_146-236    H    0.50229996    0.23460993    0.23043010    0.10810000
opls_146-237    H    0.00830004    0.42348011    0.60748944    0.11110000
opls_146-238    H    0.07102001    0.51986994    0.61344110    0.11610000
opls_146-239    H    0.06661010    0.55971006    0.61318131    0.11300000
opls_146-240    H    0.04346997    0.43137009    0.36147952    0.10830000
opls_146-241    H    0.08595005    0.43124001    0.39729971    0.10830000
opls_146-242    H    0.11971009    0.50318004    0.04283990    0.10920000
opls_146-243    H    0.07562000    0.50127005    0.04170100    0.11110000
opls_144-244    H    0.47385004    0.13773996    0.09676962    0.10850000
opls_144-245    H    0.43593001    0.31144000    0.39326895    0.10980000
opls_146-246    H    0.48673000    0.06482992    0.15824127    0.11160000
opls_146-247    H    0.47982998    0.10358010    0.08755084    0.10730000
opls_146-248    H    0.40773004    0.06330002    0.72696880    0.10930000
opls_146-249    H    0.41631994    0.02568991    0.82769045    0.10810000
opls_144-250    H    0.66117991    0.14969994    0.83425880    0.06500000
opls_144-251    H    0.42010998    0.10658998    0.50932899    0.12340000
opls_144-252    H    0.70609005    0.18350995    0.61528066    0.10850000
opls_144-253    H    0.84827998    0.27884007    0.35989976    0.09560000
opls_146-254    H    0.78463003    0.19163999    0.16519012    0.10920000
opls_146-255    H    0.82172002    0.23880006    0.07709870    0.10800000
opls_146-256    H    0.72839994    0.22069999    0.32526045    0.10800000
opls_146-257    H    0.76538996    0.26769000    0.23043010    0.10810000
opls_146-258    H    0.57651994    0.58481999    0.60748944    0.11110000
opls_146-259    H    0.48012993    0.55115000    0.61344110    0.11610000
opls_146-260    H    0.44028994    0.50689998    0.61318131    0.11300000
opls_146-261    H    0.56862996    0.61210008    0.36147952    0.10830000
opls_146-262    H    0.56876008    0.65471001    0.39729971    0.10830000
opls_146-263    H    0.49682007    0.61653007    0.04283990    0.10920000
opls_146-264    H    0.49872995    0.57434994    0.04170100    0.11110000
opls_144-265    H    0.86226001    0.33610998    0.09676962    0.10850000
opls_144-266    H    0.68855998    0.12448996    0.39326895    0.10980000
opls_146-267    H    0.93517000    0.42190008    0.15824127    0.11150000
opls_146-268    H    0.89641995    0.37625003    0.08755084    0.10730000
opls_146-269    H    0.93669997    0.34442997    0.72696880    0.10910000
opls_146-270    H    0.97430990    0.39062996    0.82769045    0.10810000
opls_144-271    H    0.85029999    0.51147994    0.83425880    0.06500000
opls_144-272    H    0.89340999    0.31352005    0.50932899    0.12350000
opls_144-273    H    0.81649013    0.52258009    0.61528066    0.10850000
opls_144-274    H    0.72115997    0.56944002    0.35989976    0.09560000
opls_146-275    H    0.80836000    0.59299002    0.16519012    0.10920000
opls_146-276    H    0.76120005    0.58291994    0.07709870    0.10800000
opls_146-277    H    0.77929996    0.50769993    0.32526045    0.10800000
opls_146-278    H    0.73231008    0.49770008    0.23043010    0.10810000
opls_146-279    H    0.58481999    0.00830010    0.60748944    0.11110000
opls_146-280    H    0.55114994    0.07101994    0.61344110    0.11610000
opls_146-281    H    0.50690003    0.06661004    0.61318131    0.11300000
opls_146-282    H    0.61210000    0.04346996    0.36147952    0.10830000
opls_146-283    H    0.65470995    0.08595002    0.39729971    0.10830000
opls_146-284    H    0.61652988    0.11970991    0.04283990    0.10920000
opls_146-285    H    0.57434995    0.07561999    0.04170100    0.11110000
opls_144-286    H    0.33611005    0.47384994    0.09676962    0.10850000
opls_144-287    H    0.12449000    0.43592996    0.39326895    0.10980000
opls_146-288    H    0.42190000    0.48673000    0.15824127    0.11150000
opls_146-289    H    0.37625000    0.47982993    0.08755084    0.10730000
opls_146-290    H    0.34443001    0.40772999    0.72696880    0.10930000
opls_146-291    H    0.39063012    0.41632008    0.82769045    0.10810000
opls_144-292    H    0.51148000    0.66118008    0.83425880    0.06500000
opls_144-293    H    0.31351998    0.42011003    0.50932899    0.12340000
opls_144-294    H    0.52258000    0.70609004    0.61528066    0.10850000
opls_144-295    H    0.56944012    0.84828008    0.35989976    0.09570000
opls_146-296    H    0.59299004    0.78463001    0.16519012    0.10920000
opls_146-297    H    0.58292007    0.82172000    0.07709870    0.10800000
opls_146-298    H    0.50770000    0.72840012    0.32526045    0.10800000
opls_146-299    H    0.49770004    0.76539007    0.23043010    0.10810000
opls_146-300    H    0.99170006    0.57652009    0.60748944    0.11120000
opls_146-301    H    0.92897999    0.48013006    0.61344110    0.11610000
opls_146-302    H    0.93338990    0.44028994    0.61318131    0.11300000
opls_146-303    H    0.95653013    0.56863012    0.36147952    0.10840000
opls_146-304    H    0.91404995    0.56875999    0.39729971    0.10830000
opls_146-305    H    0.88028991    0.49681996    0.04283990    0.10920000
opls_146-306    H    0.92438000    0.49872995    0.04170100    0.11110000
opls_144-307    H    0.52614996    0.86226004    0.09676962    0.10850000
opls_144-308    H    0.56406999    0.68856000    0.39326895    0.10980000
opls_146-309    H    0.51327000    0.93517008    0.15824127    0.11150000
opls_146-310    H    0.52017012    0.89642011    0.08755084    0.10730000
opls_146-311    H    0.59226996    0.93669998    0.72696880    0.10930000
opls_146-312    H    0.58368006    0.97431009    0.82769045    0.10810000
opls_144-313    H    0.33882009    0.85030006    0.83425880    0.06500000
opls_144-314    H    0.57989002    0.89341002    0.50932899    0.12340000
opls_144-315    H    0.29390995    0.81649005    0.61528066    0.10860000
opls_144-316    H    0.15172002    0.72115993    0.35989976    0.09560000
opls_146-317    H    0.21536997    0.80836001    0.16519012    0.10920000
opls_146-318    H    0.17827998    0.76119994    0.07709870    0.10800000
opls_146-319    H    0.27160006    0.77930001    0.32526045    0.10800000
opls_146-320    H    0.23461004    0.73231000    0.23043010    0.10810000
opls_146-321    H    0.42348006    0.41518001    0.60748944    0.11110000
opls_146-322    H    0.51987007    0.44885000    0.61344110    0.11610000
opls_146-323    H    0.55971006    0.49310002    0.61318131    0.11300000
opls_146-324    H    0.43137004    0.38789992    0.36147952    0.10830000
opls_146-325    H    0.43123992    0.34528999    0.39729971    0.10830000
opls_146-326    H    0.50317993    0.38346993    0.04283990    0.10920000
opls_146-327    H    0.50127005    0.42565006    0.04170100    0.11110000
opls_144-328    H    0.13773999    0.66389002    0.09676962    0.10850000
opls_144-329    H    0.31144002    0.87551004    0.39326895    0.10990000
opls_146-330    H    0.06483010    0.57810012    0.15824127    0.11150000
opls_146-331    H    0.10358005    0.62374997    0.08755084    0.10730000
opls_146-332    H    0.06330003    0.65557003    0.72696880    0.10910000
opls_146-333    H    0.02569010    0.60937004    0.82769045    0.10810000
opls_144-334    H    0.14970001    0.48852006    0.83425880    0.06500000
opls_144-335    H    0.10659001    0.68647995    0.50932899    0.12340000
opls_144-336    H    0.18350997    0.47742012    0.61528066    0.10850000
opls_144-337    H    0.27884003    0.43055998    0.35989976    0.09570000
opls_146-338    H    0.19164000    0.40700998    0.16519012    0.10920000
opls_146-339    H    0.23879995    0.41708006    0.07709870    0.10800000
opls_146-340    H    0.22070004    0.49230007    0.32526045    0.10800000
opls_146-341    H    0.26768992    0.50229992    0.23043010    0.10810000
opls_753-342    N    0.39749996    0.26081001    0.04731939    -0.35820000
opls_753-343    N    0.51216004    0.19362994    0.81976015    -0.28830000
opls_753-344    N    0.73918997    0.13669000    0.04731939    -0.35810000
opls_753-345    N    0.80636998    0.31853002    0.81976015    -0.28830000
opls_753-346    N    0.86331007    0.60249999    0.04731939    -0.35820000
opls_753-347    N    0.68146998    0.48784004    0.81976015    -0.28830000
opls_753-348    N    0.60250004    0.73918999    0.04731939    -0.35820000
opls_753-349    N    0.48783996    0.80637006    0.81976015    -0.28820000
opls_753-350    N    0.26081003    0.86331000    0.04731939    -0.35820000
opls_753-351    N    0.19363002    0.68146998    0.81976015    -0.28820000
opls_753-352    N    0.13668993    0.39750001    0.04731939    -0.35820000
opls_753-353    N    0.31853002    0.51215996    0.81976015    -0.28830000
