#======================================================================
# Crystal Data Generated By AuToFF
#----------------------------------------------------------------------

data_AuToFF_phase_1

_cell_length_a                         23.4887
_cell_length_b                         23.4887
_cell_length_c                         3.8004
_cell_angle_alpha                      90.00
_cell_angle_beta                       90.00
_cell_angle_gamma                      120.00
_symmetry_space_group_name_H-M_alt     'P 1'
_symmetry_space_group_IT_number        1

loop_
_space_group_symop_operation_xyz
   'x, y, z'

loop_
   _atom_site_label
   _atom_site_type_symbol
   _atom_site_fract_x
   _atom_site_fract_y
   _atom_site_fract_z
   _atom_site_charge
opls_145-0    C    0.29959015    0.70131026    0.92362909    -0.17430000
opls_700-1    C    0.26383022    0.63236015    0.92412115    0.07370000
opls_700-2    C    0.40551009    0.80869991    0.93210978    0.06260000
opls_145-3    C    0.37572001    0.53114005    0.78608041    -0.12650000
opls_145-4    C    0.40865992    0.49588016    0.80121040    -0.16760000
opls_145-5    C    0.47046987    0.52216986    0.96530891    0.19770000
opls_145-6    C    0.49903984    0.58638981    0.10411009    -0.17540000
opls_145-7    C    0.46576973    0.62128985    0.08885907    -0.12960000
opls_142-8    C    0.54897029    0.49538020    0.16388012    0.07480000
opls_700-9    C    0.57806010    0.45340016    0.16589043    0.05790000
opls_145-10    C    0.54703008    0.39111023    0.00422061    -0.11650000
opls_145-11    C    0.57583010    0.35217023    0.00713872    -0.16840000
opls_916-12    C    0.63720003    0.37348004    0.17020051    0.16650000
opls_145-13    C    0.66814003    0.43571000    0.33162036    -0.16720000
opls_145-14    C    0.63896017    0.47455020    0.33045995    -0.12440000
opls_145-15    C    0.29869004    0.59828009    0.92362909    -0.17430000
opls_700-16    C    0.36763989    0.63146986    0.92412115    0.07370000
opls_700-17    C    0.19129999    0.59681022    0.93210978    0.06260000
opls_145-18    C    0.46886015    0.84458020    0.78608041    -0.12650000
opls_145-19    C    0.50412025    0.91278013    0.80121040    -0.16760000
opls_145-20    C    0.47783011    0.94830008    0.96530891    0.19770000
opls_145-21    C    0.41360992    0.91264986    0.10411009    -0.17540000
opls_145-22    C    0.37871009    0.84447992    0.08885907    -0.12960000
opls_142-23    C    0.50462014    0.05359012    0.16388012    0.07480000
opls_700-24    C    0.54659988    0.12466000    0.16589043    0.05790000
opls_145-25    C    0.60889031    0.15592025    0.00422061    -0.11650000
opls_145-26    C    0.64782988    0.22366004    0.00713872    -0.16840000
opls_916-27    C    0.62651993    0.26371990    0.17020051    0.16650000
opls_145-28    C    0.56429011    0.23243015    0.33162036    -0.16720000
opls_145-29    C    0.52545012    0.16441015    0.33045995    -0.12430000
opls_145-30    C    0.40172005    0.70041014    0.92362909    -0.17960000
opls_700-31    C    0.36852989    0.73616999    0.92412115    0.07370000
opls_700-32    C    0.40318992    0.59448987    0.93210978    0.06270000
opls_145-33    C    0.15542008    0.62428024    0.78608041    -0.12640000
opls_145-34    C    0.08722008    0.59134020    0.80121040    -0.16760000
opls_145-35    C    0.05170003    0.52953007    0.96530891    0.19770000
opls_145-36    C    0.08734999    0.50095985    0.10411009    -0.17540000
opls_145-37    C    0.15552018    0.53423024    0.08885907    -0.12960000
opls_142-38    C    0.94641024    0.45103017    0.16388012    0.07480000
opls_700-39    C    0.87534002    0.42193984    0.16589043    0.05790000
opls_145-40    C    0.84407985    0.45297002    0.00422061    -0.11650000
opls_145-41    C    0.77634026    0.42417022    0.00713872    -0.16830000
opls_916-42    C    0.73628004    0.36280007    0.17020051    0.16660000
opls_145-43    C    0.76756986    0.33185985    0.33162036    -0.16720000
opls_145-44    C    0.83558996    0.36104014    0.33045995    -0.12440000
opls_750-45    N    0.49841981    0.48176981    0.97203979    -0.28090000
opls_750-46    N    0.51823016    0.01664994    0.97203979    -0.28090000
opls_750-47    N    0.98335003    0.50158024    0.97203979    -0.28100000
opls_239-48    N    0.66667022    0.33333022    0.17031102    -0.12540000
opls_146-49    H    0.27307981    0.72836980    0.92577097    0.10680000
opls_146-50    H    0.32873017    0.51016994    0.64880013    0.10700000
opls_146-51    H    0.38778989    0.44720996    0.68279129    0.10710000
opls_146-52    H    0.54700975    0.60879981    0.23168088    0.10710000
opls_146-53    H    0.48776016    0.66978012    0.21059099    0.10720000
opls_144-54    H    0.57308987    0.53892009    0.33698032    0.06180000
opls_146-55    H    0.50015999    0.37467020    0.87216083    0.10640000
opls_146-56    H    0.55061001    0.30408012    0.88364120    0.11690000
opls_146-57    H    0.71560002    0.45373003    0.45707031    0.11320000
opls_146-58    H    0.66340988    0.52210005    0.46379065    0.10760000
opls_146-59    H    0.27163004    0.54471013    0.92577097    0.10680000
opls_146-60    H    0.48982975    0.81855990    0.64880013    0.10700000
opls_146-61    H    0.55279010    0.94058002    0.68279129    0.10700000
opls_146-62    H    0.39119989    0.93821002    0.23168088    0.10710000
opls_146-63    H    0.33022012    0.81797982    0.21059099    0.10720000
opls_144-64    H    0.46108021    0.03417002    0.33698032    0.06180000
opls_146-65    H    0.62532990    0.12548982    0.87216083    0.10640000
opls_146-66    H    0.69592002    0.24653018    0.88364120    0.11690000
opls_146-67    H    0.54627004    0.26187001    0.45707031    0.11320000
opls_146-68    H    0.47790016    0.14130994    0.46379065    0.10760000
opls_146-69    H    0.45529015    0.72692007    0.92577097    0.10680000
opls_146-70    H    0.18144008    0.67127016    0.64880013    0.10700000
opls_146-71    H    0.05942001    0.61221002    0.68279129    0.10700000
opls_146-72    H    0.06178993    0.45299017    0.23168088    0.10710000
opls_146-73    H    0.18202014    0.51224006    0.21059099    0.10720000
opls_144-74    H    0.96582992    0.42690990    0.33698032    0.06180000
opls_146-75    H    0.87451011    0.49983998    0.87216083    0.10650000
opls_146-76    H    0.75347021    0.44939020    0.88364120    0.11690000
opls_146-77    H    0.73812994    0.28439996    0.45707031    0.11320000
opls_146-78    H    0.85868996    0.33659001    0.46379065    0.10750000
