#======================================================================
# Crystal Data Generated By AuToFF
#----------------------------------------------------------------------

data_AuToFF_phase_1

_cell_length_a                         30.8969
_cell_length_b                         23.2402
_cell_length_c                         7.5384
_cell_angle_alpha                      90.00
_cell_angle_beta                       90.00
_cell_angle_gamma                      90.00
_symmetry_space_group_name_H-M_alt     'P 1'
_symmetry_space_group_IT_number        1

loop_
_space_group_symop_operation_xyz
   'x, y, z'

loop_
   _atom_site_label
   _atom_site_type_symbol
   _atom_site_fract_x
   _atom_site_fract_y
   _atom_site_fract_z
   _atom_site_charge
opls_716-0    C    0.36990993    0.52199981    0.29713998    -0.12720000
opls_716-1    C    0.37020996    0.46569995    0.29034941    -0.16520000
opls_543-2    C    0.41479016    0.44862996    0.25345033    0.21970000
opls_543-3    C    0.41428007    0.54071996    0.26394062    0.22300000
opls_716-4    C    0.52481997    0.66993012    0.16627003    -0.13830000
opls_716-5    C    0.48078998    0.66935009    0.16783004    -0.13940000
opls_543-6    C    0.46874994    0.61403990    0.21322031    0.24170000
opls_543-7    C    0.53798990    0.61502009    0.21123050    0.24080000
opls_700-8    C    0.42578997    0.59837996    0.24481057    -0.07600000
opls_716-9    C    0.63779991    0.47069991    0.32888942    -0.14640000
opls_716-10    C    0.63751995    0.52701999    0.32007057    -0.14640000
opls_543-11    C    0.59343009    0.54384988    0.27340948    0.21740000
opls_543-12    C    0.59390004    0.45169017    0.28744031    0.21810000
opls_700-13    C    0.58126997    0.60091006    0.24398944    -0.06510000
opls_716-14    C    0.48462014    0.32156995    0.17481030    -0.13940000
opls_716-15    C    0.52852001    0.32210007    0.18872042    -0.13890000
opls_543-16    C    0.54000013    0.37781990    0.23187944    0.24170000
opls_543-17    C    0.47091003    0.37693006    0.21064019    0.24080000
opls_700-18    C    0.42717004    0.39150007    0.22839993    -0.06010000
opls_700-19    C    0.58258013    0.39383009    0.27063037    -0.06220000
opls_700-20    C    0.61453997    0.64826981    0.25557015    0.08110000
opls_700-21    C    0.39190016    0.64457018    0.25982039    0.08040000
opls_700-22    C    0.39335014    0.34471992    0.23055025    0.08110000
opls_700-23    C    0.61633012    0.34775002    0.29422026    0.08000000
opls_145-24    C    0.65678013    0.64154009    0.18848960    -0.08200000
opls_145-25    C    0.68670999    0.68680992    0.19621936    -0.13650000
opls_145-26    C    0.67455991    0.73996997    0.26926934    0.23780000
opls_145-27    C    0.63289003    0.74687008    0.33668948    -0.11190000
opls_145-28    C    0.60354987    0.70144018    0.33205057    -0.09470000
opls_145-29    C    0.40170988    0.69658996    0.34563037    -0.09480000
opls_145-30    C    0.37165994    0.74109990    0.35408044    -0.11190000
opls_145-31    C    0.33069984    0.73442010    0.27938024    0.23290000
opls_145-32    C    0.31983985    0.68234008    0.19637058    -0.13620000
opls_145-33    C    0.35035004    0.63795019    0.18616019    -0.07790000
opls_145-34    C    0.60574006    0.29628015    0.38176934    -0.09470000
opls_145-35    C    0.63547993    0.25148019    0.39559058    -0.11230000
opls_145-36    C    0.67687988    0.25724004    0.32438979    0.22750000
opls_145-37    C    0.68851988    0.30886008    0.24010002    -0.13620000
opls_145-38    C    0.65835990    0.35357011    0.22466041    -0.07820000
opls_145-39    C    0.35232014    0.35232012    0.15234002    -0.08200000
opls_145-40    C    0.32138985    0.30817979    0.15546004    -0.13620000
opls_145-41    C    0.33136010    0.25536011    0.23575958    0.23180000
opls_145-42    C    0.37182015    0.24759985    0.31385042    -0.11190000
opls_145-43    C    0.40220993    0.29178019    0.31263000    -0.09480000
opls_145-44    C    0.04987005    0.95099009    0.16686963    -0.09310000
opls_145-45    C    0.09488007    0.95041996    0.15835058    -0.13620000
opls_916-46    C    0.11966993    0.99621991    0.22472939    0.22210000
opls_145-47    C    0.09752014    0.04300006    0.30085031    -0.13650000
opls_145-48    C    0.05226997    0.04396003    0.30863976    -0.07600000
opls_700-49    C    0.02796009    0.99779993    0.24169054    0.08450000
opls_916-50    C    0.19047995    0.04966997    0.20800037    0.21910000
opls_916-51    C    0.19026990    0.94043984    0.22306060    0.24750000
opls_145-52    C    0.23266994    0.05449006    0.27509020    -0.11280000
opls_145-53    C    0.25588004    0.10548016    0.26411042    -0.07740000
opls_700-54    C    0.23747010    0.15417983    0.18618938    0.06590000
opls_145-55    C    0.19530989    0.15092985    0.11877985    -0.07810000
opls_145-56    C    0.17211986    0.09903013    0.12910963    -0.11670000
opls_145-57    C    0.17308986    0.88978021    0.14812029    -0.13650000
opls_145-58    C    0.19627989    0.83800010    0.14927969    -0.09470000
opls_700-59    C    0.23749988    0.83588997    0.22492969    0.07450000
opls_145-60    C    0.25486991    0.88551992    0.30148042    -0.11140000
opls_145-61    C    0.23141998    0.93658015    0.30130001    -0.11300000
opls_142-62    C    0.26317009    0.78288999    0.21762974    0.02080000
opls_142-63    C    0.26299014    0.20745002    0.17388040    0.01450000
opls_916-64    C    0.81763996    0.94313990    0.26036029    0.22170000
opls_916-65    C    0.81782994    0.05136014    0.27475061    0.22230000
opls_145-66    C    0.77527001    0.94121006    0.19279025    -0.13630000
opls_145-67    C    0.75156990    0.89017005    0.19284994    -0.09320000
opls_700-68    C    0.77003000    0.83931980    0.25733975    0.07200000
opls_145-69    C    0.81249996    0.84005990    0.32109997    -0.09470000
opls_145-70    C    0.83593014    0.89163002    0.32403958    -0.13650000
opls_145-71    C    0.83483003    0.10191005    0.19905020    -0.13650000
opls_145-72    C    0.81121990    0.15328999    0.20091001    -0.09470000
opls_700-73    C    0.77003000    0.15490013    0.27724053    0.07140000
opls_145-74    C    0.75297004    0.10500985    0.35440014    -0.09320000
opls_145-75    C    0.77675009    0.05404988    0.35421044    -0.13630000
opls_142-76    C    0.74462001    0.78600012    0.26279980    0.01590000
opls_142-77    C    0.74421997    0.20782007    0.26831954    0.01590000
opls_700-78    C    0.98006014    0.99795010    0.24927040    0.08240000
opls_145-79    C    0.95747988    0.04383009    0.32683063    -0.07580000
opls_145-80    C    0.91227987    0.04338990    0.33354027    -0.13600000
opls_916-81    C    0.88846001    0.99742988    0.26144938    0.21160000
opls_145-82    C    0.91130987    0.95179990    0.18326966    -0.13620000
opls_145-83    C    0.95642993    0.95187993    0.17804043    -0.09470000
opls_716-84    C    0.36990993    0.52199981    0.79713998    -0.12720000
opls_716-85    C    0.37020996    0.46569995    0.79034941    -0.16520000
opls_543-86    C    0.41479016    0.44862996    0.75345033    0.21970000
opls_543-87    C    0.41428007    0.54071996    0.76394991    0.22300000
opls_716-88    C    0.52481997    0.66993012    0.66627003    -0.13830000
opls_716-89    C    0.48078998    0.66935009    0.66783004    -0.13940000
opls_543-90    C    0.46874994    0.61403990    0.71322031    0.24170000
opls_543-91    C    0.53798990    0.61502009    0.71123050    0.24080000
opls_700-92    C    0.42578997    0.59837996    0.74481986    -0.07600000
opls_716-93    C    0.63779991    0.47069991    0.82888942    -0.14640000
opls_716-94    C    0.63751995    0.52701999    0.82007986    -0.14640000
opls_543-95    C    0.59343009    0.54384988    0.77340948    0.21730000
opls_543-96    C    0.59390004    0.45169017    0.78744959    0.21810000
opls_700-97    C    0.58126997    0.60091006    0.74398944    -0.06500000
opls_716-98    C    0.48462014    0.32156995    0.67481030    -0.13940000
opls_716-99    C    0.52852001    0.32210007    0.68872042    -0.13890000
opls_543-100    C    0.54000013    0.37781990    0.73187944    0.24170000
opls_543-101    C    0.47091003    0.37693006    0.71064019    0.24080000
opls_700-102    C    0.42717004    0.39150007    0.72841054    -0.06010000
opls_700-103    C    0.58258013    0.39383009    0.77063037    -0.06220000
opls_700-104    C    0.61453997    0.64826981    0.75557943    0.08100000
opls_700-105    C    0.39190016    0.64457018    0.75982967    0.08040000
opls_700-106    C    0.39335014    0.34471992    0.73055025    0.08110000
opls_700-107    C    0.61633012    0.34775002    0.79422026    0.08000000
opls_145-108    C    0.65678013    0.64154009    0.68850021    -0.08200000
opls_145-109    C    0.68670999    0.68680992    0.69621936    -0.13660000
opls_145-110    C    0.67455991    0.73996997    0.76927995    0.23780000
opls_145-111    C    0.63289003    0.74687008    0.83670010    -0.11190000
opls_145-112    C    0.60354987    0.70144018    0.83205985    -0.09470000
opls_145-113    C    0.40170988    0.69658996    0.84563037    -0.09480000
opls_145-114    C    0.37165994    0.74109990    0.85408044    -0.11190000
opls_145-115    C    0.33069984    0.73442010    0.77938024    0.23290000
opls_145-116    C    0.31983985    0.68234008    0.69637058    -0.13620000
opls_145-117    C    0.35035004    0.63795019    0.68616019    -0.07790000
opls_145-118    C    0.60574006    0.29628015    0.88176934    -0.09470000
opls_145-119    C    0.63547993    0.25148019    0.89559058    -0.11230000
opls_145-120    C    0.67687988    0.25724004    0.82438979    0.22750000
opls_145-121    C    0.68851988    0.30886008    0.74011063    -0.13620000
opls_145-122    C    0.65835990    0.35357011    0.72466969    -0.07820000
opls_145-123    C    0.35232014    0.35232012    0.65235063    -0.08200000
opls_145-124    C    0.32138985    0.30817979    0.65546004    -0.13620000
opls_145-125    C    0.33136010    0.25536011    0.73575958    0.23180000
opls_145-126    C    0.37182015    0.24759985    0.81385970    -0.11190000
opls_145-127    C    0.40220993    0.29178019    0.81263000    -0.09480000
opls_145-128    C    0.04987005    0.95099009    0.66686963    -0.09310000
opls_145-129    C    0.09488007    0.95041996    0.65835986    -0.13620000
opls_916-130    C    0.11966993    0.99621991    0.72474000    0.22210000
opls_145-131    C    0.09752014    0.04300006    0.80085031    -0.13660000
opls_145-132    C    0.05226997    0.04396003    0.80863976    -0.07600000
opls_700-133    C    0.02796009    0.99779993    0.74169054    0.08450000
opls_916-134    C    0.19047995    0.04966997    0.70800037    0.21910000
opls_916-135    C    0.19026990    0.94043984    0.72306060    0.24730000
opls_145-136    C    0.23266994    0.05449006    0.77509020    -0.11280000
opls_145-137    C    0.25588004    0.10548016    0.76411042    -0.07740000
opls_700-138    C    0.23747010    0.15417983    0.68618938    0.06590000
opls_145-139    C    0.19530989    0.15092985    0.61879046    -0.07810000
opls_145-140    C    0.17211986    0.09903013    0.62910963    -0.11670000
opls_145-141    C    0.17308986    0.88978021    0.64812958    -0.13650000
opls_145-142    C    0.19627989    0.83800010    0.64929030    -0.09480000
opls_700-143    C    0.23749988    0.83588997    0.72492969    0.07450000
opls_145-144    C    0.25486991    0.88551992    0.80148042    -0.11140000
opls_145-145    C    0.23141998    0.93658015    0.80130001    -0.11300000
opls_142-146    C    0.26317009    0.78288999    0.71764035    0.02080000
opls_142-147    C    0.26299014    0.20745002    0.67388968    0.01450000
opls_916-148    C    0.81763996    0.94313990    0.76036029    0.22170000
opls_916-149    C    0.81782994    0.05136014    0.77475990    0.22230000
opls_145-150    C    0.77527001    0.94121006    0.69279025    -0.13630000
opls_145-151    C    0.75156990    0.89017005    0.69284994    -0.09320000
opls_700-152    C    0.77003000    0.83931980    0.75735037    0.07200000
opls_145-153    C    0.81249996    0.84005990    0.82109997    -0.09480000
opls_145-154    C    0.83593014    0.89163002    0.82405020    -0.13650000
opls_145-155    C    0.83483003    0.10191005    0.69905948    -0.13650000
opls_145-156    C    0.81121990    0.15328999    0.70091001    -0.09470000
opls_700-157    C    0.77003000    0.15490013    0.77724053    0.07140000
opls_145-158    C    0.75297004    0.10500985    0.85440014    -0.09320000
opls_145-159    C    0.77675009    0.05404988    0.85421044    -0.13620000
opls_142-160    C    0.74462001    0.78600012    0.76281041    0.01590000
opls_142-161    C    0.74421997    0.20782007    0.76831954    0.01590000
opls_700-162    C    0.98006014    0.99795010    0.74927040    0.08240000
opls_145-163    C    0.95747988    0.04383009    0.82683063    -0.07580000
opls_145-164    C    0.91227987    0.04338990    0.83354956    -0.13600000
opls_916-165    C    0.88846001    0.99742988    0.76145999    0.21160000
opls_145-166    C    0.91130987    0.95179990    0.68326966    -0.13620000
opls_145-167    C    0.95642993    0.95187993    0.67804972    -0.09480000
opls_542-168    N    0.44110995    0.49512999    0.24351056    -0.31820000
opls_542-169    N    0.50366995    0.57948985    0.23242996    -0.31820000
opls_542-170    N    0.56735012    0.49716009    0.25906956    -0.31820000
opls_542-171    N    0.50491991    0.41257003    0.23876950    -0.31820000
opls_750-172    N    0.30187009    0.20803995    0.23863021    -0.24490000
opls_750-173    N    0.70538986    0.20889020    0.33313966    -0.24490000
opls_239-174    N    0.16681997    0.99524014    0.21760055    -0.12490000
opls_239-175    N    0.84142001    0.99724013    0.26666003    -0.12720000
opls_750-176    N    0.30181992    0.78233019    0.28419028    -0.24500000
opls_750-177    N    0.70276986    0.78868986    0.26920036    -0.24490000
opls_542-178    N    0.44110995    0.49512999    0.74351056    -0.31820000
opls_542-179    N    0.50366995    0.57948985    0.73242996    -0.31820000
opls_542-180    N    0.56735012    0.49716009    0.75906956    -0.31820000
opls_542-181    N    0.50491991    0.41257003    0.73876950    -0.31820000
opls_750-182    N    0.30187009    0.20803995    0.73863021    -0.24490000
opls_750-183    N    0.70538986    0.20889020    0.83313966    -0.24490000
opls_239-184    N    0.16681997    0.99524014    0.71760055    -0.12490000
opls_239-185    N    0.84142001    0.99724013    0.76666003    -0.12720000
opls_750-186    N    0.30181992    0.78233019    0.78419028    -0.24500000
opls_750-187    N    0.70276986    0.78868986    0.76920036    -0.24490000
F2_Co4+2-188    Co    0.50427001    0.49608007    0.24390056    0.80770000
F2_Co4+2-189    Co    0.50427001    0.49608007    0.74390056    0.80770000
opls_547-190    H    0.33841000    0.54590021    0.32503051    0.04930000
opls_547-191    H    0.33894986    0.44059001    0.31190969    0.04930000
opls_547-192    H    0.54289006    0.71120989    0.13177995    0.04930000
opls_547-193    H    0.46196997    0.71016988    0.13501008    0.04930000
opls_547-194    H    0.66894996    0.44699013    0.36391940    0.04930000
opls_547-195    H    0.66843988    0.55229989    0.34719039    0.04930000
opls_547-196    H    0.46707016    0.27998985    0.13932001    0.04930000
opls_547-197    H    0.54775010    0.28092013    0.16536002    0.04930000
opls_146-198    H    0.66701999    0.59886016    0.12689961    0.04930000
opls_146-199    H    0.72092993    0.68046015    0.14316035    0.04930000
opls_146-200    H    0.62266991    0.78988993    0.39606017    0.04930000
opls_146-201    H    0.57003000    0.70802015    0.39193065    0.04930000
opls_146-202    H    0.43477015    0.70290015    0.40989998    0.04930000
opls_146-203    H    0.38048995    0.78326994    0.42232967    0.04930000
opls_146-204    H    0.28618988    0.67621019    0.13729969    0.04930000
opls_146-205    H    0.34166988    0.59579005    0.11753025    0.04930000
opls_146-206    H    0.57228007    0.29062013    0.44310066    0.04930000
opls_146-207    H    0.62601005    0.20982995    0.46541972    0.04930000
opls_146-208    H    0.72255016    0.31440005    0.18417038    0.04930000
opls_146-209    H    0.66774984    0.39529995    0.15508994    0.04930000
opls_146-210    H    0.34388013    0.39483008    0.08527937    0.04930000
opls_146-211    H    0.28822989    0.31526020    0.09284066    0.04930000
opls_146-212    H    0.38022002    0.20482010    0.37936034    0.04930000
opls_146-213    H    0.43478990    0.28439988    0.37986973    0.04930000
opls_146-214    H    0.03051989    0.91311004    0.11263000    0.04930000
opls_146-215    H    0.11237988    0.91218019    0.09645946    0.04930000
opls_146-216    H    0.11644987    0.08089991    0.35739945    0.04930000
opls_146-217    H    0.03488991    0.08243001    0.36970047    0.04930000
opls_146-218    H    0.24880004    0.01586002    0.34082033    0.04920000
opls_146-219    H    0.29022005    0.10781017    0.31890985    0.04930000
opls_146-220    H    0.17977985    0.19041015    0.05547994    0.04930000
opls_146-221    H    0.13794005    0.09720011    0.07245039    0.04930000
opls_146-222    H    0.13960009    0.89035981    0.08469967    0.04930000
opls_146-223    H    0.18150009    0.79761018    0.08848960    0.04930000
opls_146-224    H    0.28840013    0.88426003    0.36443012    0.04930000
opls_146-225    H    0.24646000    0.97597998    0.36699034    0.04930000
opls_144-226    H    0.24909004    0.74257020    0.15373023    0.02910000
opls_144-227    H    0.24852008    0.24725002    0.10832007    0.02910000
opls_146-228    H    0.75973997    0.98181986    0.13671999    0.04930000
opls_146-229    H    0.71698002    0.88972986    0.14019023    0.04930000
opls_146-230    H    0.82811997    0.79863986    0.37080017    0.04930000
opls_146-231    H    0.87029993    0.89150007    0.37904993    0.04930000
opls_146-232    H    0.86825992    0.10134982    0.13510029    0.04930000
opls_146-233    H    0.82558995    0.19392991    0.14006951    0.04930000
opls_146-234    H    0.71947995    0.10595003    0.41779025    0.04930000
opls_146-235    H    0.76291990    0.01374988    0.41916056    0.04930000
opls_144-236    H    0.76172011    0.74254008    0.26140958    0.02910000
opls_144-237    H    0.75832009    0.24809984    0.20425952    0.02910000
opls_146-238    H    0.97599015    0.08184009    0.38497957    0.04930000
opls_146-239    H    0.89419003    0.08064991    0.39814947    0.04930000
opls_146-240    H    0.89297988    0.91398998    0.12290937    0.04930000
opls_146-241    H    0.97449000    0.91423998    0.11541043    0.04930000
opls_547-242    H    0.33841000    0.54590021    0.82503051    0.04920000
opls_547-243    H    0.33894986    0.44059001    0.81190969    0.04930000
opls_547-244    H    0.54289006    0.71120989    0.63177995    0.04930000
opls_547-245    H    0.46196997    0.71016988    0.63501008    0.04930000
opls_547-246    H    0.66894996    0.44699013    0.86391940    0.04930000
opls_547-247    H    0.66843988    0.55229989    0.84719039    0.04930000
opls_547-248    H    0.46707016    0.27998985    0.63932001    0.04930000
opls_547-249    H    0.54775010    0.28092013    0.66537064    0.04930000
opls_146-250    H    0.66701999    0.59886016    0.62689961    0.04930000
opls_146-251    H    0.72092993    0.68046015    0.64316035    0.04930000
opls_146-252    H    0.62266991    0.78988993    0.89606017    0.04930000
opls_146-253    H    0.57003000    0.70802015    0.89193065    0.04930000
opls_146-254    H    0.43477015    0.70290015    0.90989998    0.04930000
opls_146-255    H    0.38048995    0.78326994    0.92232967    0.04930000
opls_146-256    H    0.28618988    0.67621019    0.63729969    0.04930000
opls_146-257    H    0.34166988    0.59579005    0.61753953    0.04930000
opls_146-258    H    0.57228007    0.29062013    0.94310066    0.04930000
opls_146-259    H    0.62601005    0.20982995    0.96541972    0.04930000
opls_146-260    H    0.72255016    0.31440005    0.68417967    0.04930000
opls_146-261    H    0.66774984    0.39529995    0.65508994    0.04930000
opls_146-262    H    0.34388013    0.39483008    0.58528998    0.04930000
opls_146-263    H    0.28822989    0.31526020    0.59284994    0.04930000
opls_146-264    H    0.38022002    0.20482010    0.87936963    0.04930000
opls_146-265    H    0.43478990    0.28439988    0.87986973    0.04930000
opls_146-266    H    0.03051989    0.91311004    0.61263000    0.04930000
opls_146-267    H    0.11237988    0.91218019    0.59645946    0.04930000
opls_146-268    H    0.11644987    0.08089991    0.85739945    0.04920000
opls_146-269    H    0.03488991    0.08243001    0.86970047    0.04930000
opls_146-270    H    0.24880004    0.01586002    0.84082962    0.04930000
opls_146-271    H    0.29022005    0.10781017    0.81890985    0.04930000
opls_146-272    H    0.17977985    0.19041015    0.55547994    0.04930000
opls_146-273    H    0.13794005    0.09720011    0.57245039    0.04930000
opls_146-274    H    0.13960009    0.89035981    0.58469967    0.04930000
opls_146-275    H    0.18150009    0.79761018    0.58850021    0.04930000
opls_146-276    H    0.28840013    0.88426003    0.86443012    0.04930000
opls_146-277    H    0.24646000    0.97597998    0.86699034    0.04930000
opls_144-278    H    0.24909004    0.74257020    0.65373023    0.02910000
opls_144-279    H    0.24852008    0.24725002    0.60832007    0.02910000
opls_146-280    H    0.75973997    0.98181986    0.63671999    0.04930000
opls_146-281    H    0.71698002    0.88972986    0.64019023    0.04930000
opls_146-282    H    0.82811997    0.79863986    0.87080017    0.04930000
opls_146-283    H    0.87029993    0.89150007    0.87904993    0.04930000
opls_146-284    H    0.86825992    0.10134982    0.63510029    0.04930000
opls_146-285    H    0.82558995    0.19392991    0.64006951    0.04930000
opls_146-286    H    0.71947995    0.10595003    0.91779025    0.04930000
opls_146-287    H    0.76291990    0.01374988    0.91916056    0.04930000
opls_144-288    H    0.76172011    0.74254008    0.76140958    0.02910000
opls_144-289    H    0.75832009    0.24809984    0.70427014    0.02910000
opls_146-290    H    0.97599015    0.08184009    0.88497957    0.04930000
opls_146-291    H    0.89419003    0.08064991    0.89814947    0.04930000
opls_146-292    H    0.89297988    0.91398998    0.62290937    0.04930000
opls_146-293    H    0.97449000    0.91423998    0.61541972    0.04930000
