#======================================================================
# Crystal Data Generated By AuToFF
#----------------------------------------------------------------------

data_AuToFF_phase_1

_cell_length_a                         30.4969
_cell_length_b                         30.4969
_cell_length_c                         4.0329
_cell_angle_alpha                      90.00
_cell_angle_beta                       90.00
_cell_angle_gamma                      120.00
_symmetry_space_group_name_H-M_alt     'P 1'
_symmetry_space_group_IT_number        1

loop_
_space_group_symop_operation_xyz
   'x, y, z'

loop_
   _atom_site_label
   _atom_site_type_symbol
   _atom_site_fract_x
   _atom_site_fract_y
   _atom_site_fract_z
   _atom_site_charge
opls_234-0    C    0.89467994    0.42465002    0.50000000    0.39070000
opls_234-1    C    0.57534983    0.47002982    0.50000000    0.39070000
opls_234-2    C    0.52997023    0.10532015    0.50000000    0.39070000
opls_234-3    C    0.10532006    0.57534998    0.50000000    0.39060000
opls_234-4    C    0.42465017    0.52997018    0.50000000    0.39070000
opls_234-5    C    0.47002977    0.89467985    0.50000000    0.39070000
opls_700-6    C    0.94663003    0.46291993    0.50000000    -0.17570000
opls_700-7    C    0.53708012    0.48371006    0.50000000    -0.17570000
opls_700-8    C    0.51628985    0.05337000    0.50000000    -0.17570000
opls_700-9    C    0.05336997    0.53708007    0.50000000    -0.16850000
opls_700-10    C    0.46291988    0.51628994    0.50000000    -0.17570000
opls_700-11    C    0.48371015    0.94663000    0.50000000    -0.17570000
opls_166-12    C    0.44763001    0.96312004    0.50000000    0.18000000
opls_166-13    C    0.03688008    0.48451011    0.50000000    0.23530000
opls_166-14    C    0.51548991    0.55236986    0.50000000    0.23530000
opls_166-15    C    0.55236999    0.03687996    0.50000000    0.23530000
opls_166-16    C    0.96311992    0.51548989    0.50000000    0.18000000
opls_166-17    C    0.48451009    0.44763014    0.50000000    0.23530000
opls_145-18    C    0.98463995    0.44892013    0.50000000    -0.21210000
opls_145-19    C    0.55107995    0.53572003    0.50000000    -0.21210000
opls_145-20    C    0.46427996    0.01537006    0.50000000    -0.21210000
opls_145-21    C    0.01536988    0.55107987    0.50000000    -0.21210000
opls_145-22    C    0.44892005    0.46427997    0.50000000    -0.21210000
opls_145-23    C    0.53572023    0.98464016    0.50000000    -0.21210000
opls_142-24    C    0.77005993    0.41022010    0.50000000    0.02720000
opls_142-25    C    0.58978008    0.35984013    0.50000000    0.02720000
opls_142-26    C    0.64015985    0.22994999    0.50000000    0.02720000
opls_142-27    C    0.22994991    0.58977990    0.50000000    0.02720000
opls_142-28    C    0.41021992    0.64015987    0.50000000    0.02720000
opls_142-29    C    0.35983982    0.77005985    0.50000000    0.02720000
opls_700-30    C    0.28122001    0.62832015    0.50000000    0.04660000
opls_700-31    C    0.37167983    0.65289997    0.50000000    0.04660000
opls_700-32    C    0.34709984    0.71877988    0.50000000    0.04660000
opls_700-33    C    0.71877999    0.37167985    0.50000000    0.04660000
opls_700-34    C    0.62832017    0.34710003    0.50000000    0.04660000
opls_700-35    C    0.65290016    0.28122012    0.50000000    0.04660000
opls_145-36    C    0.31978009    0.61546002    0.50000000    -0.10290000
opls_145-37    C    0.38454003    0.70432004    0.50000000    -0.10290000
opls_145-38    C    0.29567988    0.68021994    0.50000000    -0.08530000
opls_145-39    C    0.68021991    0.38453998    0.50000000    -0.10290000
opls_145-40    C    0.61545997    0.29567996    0.50000000    -0.10290000
opls_145-41    C    0.70432012    0.31978006    0.50000000    -0.08530000
opls_181-42    C    0.41784990    0.35337012    0.50000000    -0.21240000
opls_181-43    C    0.64662985    0.06446989    0.50000000    -0.21240000
opls_181-44    C    0.93553009    0.58215999    0.50000000    -0.21240000
opls_181-45    C    0.58215010    0.64662988    0.50000000    -0.21240000
opls_181-46    C    0.35337015    0.93553011    0.50000000    -0.21230000
opls_181-47    C    0.06446991    0.41784985    0.50000000    -0.21240000
opls_236-48    O    0.88316985    0.37892984    0.50000000    -0.51380000
opls_236-49    O    0.62107000    0.50424007    0.50000000    -0.51360000
opls_236-50    O    0.49575983    0.11683993    0.50000000    -0.51760000
opls_236-51    O    0.11683999    0.62107016    0.50000000    -0.51380000
opls_236-52    O    0.37893000    0.49575993    0.50000000    -0.51380000
opls_236-53    O    0.50423985    0.88316991    0.50000000    -0.51380000
opls_179-54    O    0.46789007    0.39684996    0.50000000    -0.17460000
opls_179-55    O    0.60315008    0.07103985    0.50000000    -0.16640000
opls_179-56    O    0.92896017    0.53211019    0.50000000    -0.16640000
opls_179-57    O    0.53210993    0.60315004    0.50000000    -0.17480000
opls_179-58    O    0.39684992    0.92896015    0.50000000    -0.16640000
opls_179-59    O    0.07103983    0.46788981    0.50000000    -0.17480000
opls_750-60    N    0.59170987    0.19185993    0.50000000    -0.09500000
opls_750-61    N    0.80813985    0.39984984    0.50000000    -0.09500000
opls_750-62    N    0.60014977    0.40828985    0.50000000    -0.13700000
opls_750-63    N    0.40829013    0.80814007    0.50000000    -0.09500000
opls_750-64    N    0.19186015    0.60015016    0.50000000    -0.11860000
opls_750-65    N    0.39985023    0.59171015    0.50000000    -0.10150000
opls_238-66    N    0.85588009    0.43409000    0.50000000    -0.25850000
opls_238-67    N    0.56591987    0.42178986    0.50000000    -0.25850000
opls_238-68    N    0.57821020    0.14412014    0.50000000    -0.25840000
opls_238-69    N    0.14411991    0.56591985    0.50000000    -0.25850000
opls_238-70    N    0.43408997    0.57821014    0.50000000    -0.25850000
opls_238-71    N    0.42178980    0.85587986    0.50000000    -0.25850000
opls_146-72    H    0.97419000    0.41149002    0.50000000    0.21750000
opls_146-73    H    0.58851007    0.56269999    0.50000000    0.21760000
opls_146-74    H    0.43729993    0.02580999    0.50000000    0.21760000
opls_146-75    H    0.02581000    0.58850998    0.50000000    0.21750000
opls_146-76    H    0.41148993    0.43730001    0.50000000    0.21750000
opls_146-77    H    0.56270007    0.97419001    0.50000000    0.21750000
opls_146-78    H    0.26807994    0.69006012    0.50000000    0.21760000
opls_146-79    H    0.30993984    0.57800984    0.50000000    0.21760000
opls_146-80    H    0.42199005    0.73192019    0.50000000    0.21760000
opls_146-81    H    0.73192006    0.30993988    0.50000000    0.21760000
opls_146-82    H    0.69006016    0.42199016    0.50000000    0.21760000
opls_146-83    H    0.57801014    0.26808019    0.50000000    0.21760000
opls_185-84    H    0.39684001    0.35310016    0.71845074    0.09460000
opls_185-85    H    0.64690006    0.04373996    0.71845074    0.09430000
opls_185-86    H    0.95625993    0.60315988    0.71845074    0.09430000
opls_185-87    H    0.60315999    0.64689984    0.71845074    0.09460000
opls_185-88    H    0.35309994    0.95626004    0.71845074    0.09430000
opls_185-89    H    0.04374007    0.39684012    0.71845074    0.09460000
opls_185-90    H    0.60315999    0.64689984    0.28153934    0.09460000
opls_185-91    H    0.35309994    0.95626004    0.28153934    0.09430000
opls_185-92    H    0.04374007    0.39684012    0.28153934    0.09460000
opls_185-93    H    0.39684001    0.35310016    0.28153934    0.09460000
opls_185-94    H    0.64690006    0.04373996    0.28153934    0.09430000
opls_185-95    H    0.95625993    0.60315988    0.28153934    0.09430000
opls_144-96    H    0.77910003    0.44739994    0.50000000    0.10580000
opls_144-97    H    0.55260016    0.33170005    0.50000000    0.10580000
opls_144-98    H    0.66830015    0.22090001    0.50000000    0.10600000
opls_144-99    H    0.22089997    0.55260006    0.50000000    0.10590000
opls_144-100    H    0.44739984    0.66829995    0.50000000    0.10580000
opls_144-101    H    0.33169985    0.77909999    0.50000000    0.10580000
opls_910-102    H    0.86566992    0.46938010    0.50000000    0.23980000
opls_910-103    H    0.53062009    0.39628997    0.50000000    0.23980000
opls_910-104    H    0.60370999    0.13432993    0.50000000    0.23980000
opls_910-105    H    0.13433008    0.53061990    0.50000000    0.23980000
opls_910-106    H    0.46937991    0.60371003    0.50000000    0.23980000
opls_910-107    H    0.39629001    0.86567007    0.50000000    0.23990000
opls_185-108    H    0.42057989    0.31903000    0.50000000    0.09870000
opls_185-109    H    0.68096994    0.10155014    0.50000000    0.09370000
opls_185-110    H    0.89844983    0.57941986    0.50000000    0.09370000
opls_185-111    H    0.57942011    0.68097000    0.50000000    0.09870000
opls_185-112    H    0.31903006    0.89844986    0.50000000    0.09370000
opls_185-113    H    0.10155017    0.42058014    0.50000000    0.09410000
