#======================================================================
# Crystal Data Generated By AuToFF
#----------------------------------------------------------------------

data_AuToFF_phase_1

_cell_length_a                         30.3330
_cell_length_b                         30.3330
_cell_length_c                         3.3623
_cell_angle_alpha                      90.00
_cell_angle_beta                       90.00
_cell_angle_gamma                      120.00
_symmetry_space_group_name_H-M_alt     'P 1'
_symmetry_space_group_IT_number        1

loop_
_space_group_symop_operation_xyz
   'x, y, z'

loop_
   _atom_site_label
   _atom_site_type_symbol
   _atom_site_fract_x
   _atom_site_fract_y
   _atom_site_fract_z
   _atom_site_charge
MOF2_B_2-0    B    0.21964010    0.60981988    0.50000000    0.59010000
MOF2_B_2-1    B    0.39017978    0.60981988    0.50000000    0.59010000
MOF2_B_2-2    B    0.39017993    0.78035985    0.50000000    0.59020000
MOF2_B_2-3    B    0.78035990    0.39018012    0.50000000    0.59010000
MOF2_B_2-4    B    0.60982022    0.39018012    0.50000000    0.59010000
MOF2_B_2-5    B    0.60982007    0.21964015    0.50000000    0.59010000
opls_145-6    C    0.27891998    0.63945997    0.50000000    -0.24000000
opls_145-7    C    0.36054000    0.63945997    0.50000000    -0.24000000
opls_145-8    C    0.36054003    0.72108005    0.50000000    -0.24000000
opls_145-9    C    0.72108002    0.36054003    0.50000000    -0.24000000
opls_145-10    C    0.63946000    0.36054003    0.50000000    -0.24000000
opls_145-11    C    0.63945997    0.27891995    0.50000000    -0.24000000
opls_166-12    C    0.13933996    0.54594001    0.50000000    0.17950000
opls_145-13    C    0.09536004    0.49901995    0.50000000    -0.22540000
opls_700-14    C    0.04735993    0.49956013    0.50000000    0.06410000
opls_166-15    C    0.45405990    0.59339986    0.50000000    0.17950000
opls_145-16    C    0.50098005    0.59633981    0.50000000    -0.22540000
opls_700-17    C    0.50044006    0.54779999    0.50000000    0.06410000
opls_166-18    C    0.40660013    0.86066013    0.50000000    0.17950000
opls_145-19    C    0.40366005    0.90463985    0.50000000    -0.22540000
opls_700-20    C    0.45220001    0.95263988    0.50000000    0.06410000
opls_166-21    C    0.86066004    0.45405999    0.50000000    0.17950000
opls_145-22    C    0.90463996    0.50098005    0.50000000    -0.22540000
opls_700-23    C    0.95264007    0.50043987    0.50000000    0.06410000
opls_166-24    C    0.54594010    0.40660014    0.50000000    0.17950000
opls_145-25    C    0.49901976    0.40365981    0.50000000    -0.22530000
opls_700-26    C    0.49955994    0.45220001    0.50000000    0.06410000
opls_166-27    C    0.59339987    0.13933987    0.50000000    0.17950000
opls_145-28    C    0.59633995    0.09536015    0.50000000    -0.22540000
opls_700-29    C    0.54779999    0.04736012    0.50000000    0.06410000
opls_166-30    C    0.54594000    0.13933987    0.50000000    0.17960000
opls_145-31    C    0.49902020    0.09536015    0.50000000    -0.22530000
opls_700-32    C    0.49956012    0.04736012    0.50000000    0.06410000
opls_166-33    C    0.59339996    0.45405999    0.50000000    0.17950000
opls_145-34    C    0.59634009    0.50098005    0.50000000    -0.22540000
opls_700-35    C    0.54779980    0.50043987    0.50000000    0.06410000
opls_166-36    C    0.86066004    0.40660014    0.50000000    0.17950000
opls_145-37    C    0.90464004    0.40365981    0.50000000    -0.22540000
opls_700-38    C    0.95264008    0.45220001    0.50000000    0.06410000
opls_166-39    C    0.45406000    0.86066013    0.50000000    0.17950000
opls_145-40    C    0.50097980    0.90463985    0.50000000    -0.22540000
opls_700-41    C    0.50043988    0.95263988    0.50000000    0.06410000
opls_166-42    C    0.40660004    0.54594001    0.50000000    0.17950000
opls_145-43    C    0.40365991    0.49901995    0.50000000    -0.22530000
opls_700-44    C    0.45220020    0.49956013    0.50000000    0.06410000
opls_166-45    C    0.13933996    0.59339986    0.50000000    0.17970000
opls_145-46    C    0.09535977    0.59633981    0.50000000    -0.22540000
opls_700-47    C    0.04735992    0.54779999    0.50000000    0.06420000
opls_145-48    C    0.30676989    0.69322989    0.50000000    -0.01250000
opls_145-49    C    0.30676992    0.61353984    0.50000000    -0.01250000
opls_145-50    C    0.38646000    0.69322989    0.50000000    -0.01250000
opls_145-51    C    0.69323011    0.30677011    0.50000000    -0.01250000
opls_145-52    C    0.69323008    0.38646016    0.50000000    -0.01250000
opls_145-53    C    0.61354000    0.30677011    0.50000000    -0.01250000
opls_145-54    C    0.54630999    0.54631003    0.50000000    -0.16320000
opls_145-55    C    0.45369004    0.00000000    0.50000000    -0.16320000
opls_145-56    C    0.99999997    0.45368997    0.50000000    -0.16320000
opls_145-57    C    0.45369001    0.45368997    0.50000000    -0.16310000
opls_145-58    C    0.54630996    0.00000000    0.50000000    -0.16320000
opls_145-59    C    0.00000003    0.54631003    0.50000000    -0.16320000
opls_167-60    O    0.18959991    0.55612001    0.50000000    -0.34460000
opls_167-61    O    0.44388006    0.63347996    0.50000000    -0.34450000
opls_167-62    O    0.36652003    0.81040003    0.50000000    -0.34460000
opls_167-63    O    0.81040009    0.44387999    0.50000000    -0.34460000
opls_167-64    O    0.55611994    0.36652004    0.50000000    -0.34450000
opls_167-65    O    0.63347997    0.18959997    0.50000000    -0.34460000
opls_167-66    O    0.55612000    0.18959997    0.50000000    -0.34460000
opls_167-67    O    0.63347990    0.44387999    0.50000000    -0.34460000
opls_167-68    O    0.81040010    0.36652004    0.50000000    -0.34460000
opls_167-69    O    0.44388000    0.81040003    0.50000000    -0.34450000
opls_167-70    O    0.36652010    0.55612001    0.50000000    -0.34460000
opls_167-71    O    0.18959990    0.63347996    0.50000000    -0.34460000
opls_146-72    H    0.09702984    0.46425979    0.50000000    0.12440000
opls_146-73    H    0.53574015    0.63276010    0.50000000    0.12130000
opls_146-74    H    0.36722982    0.90296983    0.50000000    0.12440000
opls_146-75    H    0.90296997    0.53573983    0.50000000    0.12440000
opls_146-76    H    0.46425984    0.36723000    0.50000000    0.12440000
opls_146-77    H    0.63277018    0.09703017    0.50000000    0.12440000
opls_146-78    H    0.46425998    0.09703017    0.50000000    0.12450000
opls_146-79    H    0.63276986    0.53573983    0.50000000    0.12440000
opls_146-80    H    0.90297016    0.36723000    0.50000000    0.12440000
opls_146-81    H    0.53574002    0.90296983    0.50000000    0.12440000
opls_146-82    H    0.36722995    0.46425979    0.50000000    0.12440000
opls_146-83    H    0.09703017    0.63276010    0.50000000    0.12010000
opls_146-84    H    0.28604994    0.71395001    0.50000000    0.11130000
opls_146-85    H    0.28604999    0.57209997    0.50000000    0.11130000
opls_146-86    H    0.42790007    0.71395001    0.50000000    0.11130000
opls_146-87    H    0.71395006    0.28604999    0.50000000    0.11130000
opls_146-88    H    0.71395001    0.42790003    0.50000000    0.11130000
opls_146-89    H    0.57209993    0.28604999    0.50000000    0.11130000
opls_146-90    H    0.58200988    0.58201008    0.50000000    0.11940000
opls_146-91    H    0.41798998    0.00000000    0.50000000    0.11930000
opls_146-92    H    0.99999981    0.41798992    0.50000000    0.11930000
opls_146-93    H    0.41799012    0.41798992    0.50000000    0.11930000
opls_146-94    H    0.58201002    0.00000000    0.50000000    0.11930000
opls_146-95    H    0.00000019    0.58201008    0.50000000    0.11930000
