#======================================================================
# Crystal Data Generated By AuToFF
#----------------------------------------------------------------------

data_AuToFF_phase_1

_cell_length_a                         25.3750
_cell_length_b                         25.3750
_cell_length_c                         3.6500
_cell_angle_alpha                      90.00
_cell_angle_beta                       90.00
_cell_angle_gamma                      120.00
_symmetry_space_group_name_H-M_alt     'P 1'
_symmetry_space_group_IT_number        1

loop_
_space_group_symop_operation_xyz
   'x, y, z'

loop_
   _atom_site_label
   _atom_site_type_symbol
   _atom_site_fract_x
   _atom_site_fract_y
   _atom_site_fract_z
   _atom_site_charge
opls_145-0    C    0.29629016    0.69101026    0.33812877    -0.13580000
opls_145-1    C    0.69900010    0.30380985    0.90067945    -0.13580000
opls_700-2    C    0.73038021    0.36667017    0.89232055    0.07350000
opls_700-3    C    0.79435008    0.40003022    0.84776986    0.08420000
opls_145-4    C    0.83144006    0.37624998    0.95307945    -0.20480000
opls_145-5    C    0.89191006    0.40686013    0.89041096    -0.21270000
opls_145-6    C    0.92011009    0.46321999    0.72304110    0.20250000
opls_145-7    C    0.88437004    0.48754994    0.62292877    -0.21250000
opls_145-8    C    0.82382999    0.45765013    0.68187123    -0.20480000
opls_145-9    C    0.12421993    0.49994016    0.66933973    -0.20520000
opls_145-10    C    0.18356002    0.53337028    0.58349863    -0.20480000
opls_700-11    C    0.20680007    0.59035994    0.41687945    0.08480000
opls_145-12    C    0.16504022    0.60927019    0.34247123    -0.23270000
opls_166-13    C    0.10562996    0.57566032    0.43550959    0.26290000
opls_700-14    C    0.08330978    0.51920990    0.60112055    0.00180000
opls_142-15    C    0.02157993    0.48007021    0.70841918    0.10460000
opls_700-16    C    0.27004027    0.62842025    0.35081918    0.07920000
opls_145-17    C    0.30899009    0.60528027    0.33812877    -0.13580000
opls_145-18    C    0.69619020    0.39519026    0.90067945    -0.13580000
opls_700-19    C    0.63333009    0.36371004    0.89232055    0.07350000
opls_700-20    C    0.59996995    0.39432019    0.84776986    0.08420000
opls_145-21    C    0.62374993    0.45519010    0.95307945    -0.20480000
opls_145-22    C    0.59314033    0.48505032    0.89041096    -0.21270000
opls_145-23    C    0.53678007    0.45689018    0.72304110    0.20250000
opls_145-24    C    0.51245033    0.39682026    0.62292877    -0.21250000
opls_145-25    C    0.54234994    0.36618008    0.68187123    -0.20480000
opls_145-26    C    0.50006008    0.62428016    0.66933973    -0.20520000
opls_145-27    C    0.46663000    0.65019005    0.58349863    -0.20480000
opls_700-28    C    0.40963991    0.61644003    0.41687945    0.08480000
opls_145-29    C    0.39073010    0.55577034    0.34247123    -0.23270000
opls_166-30    C    0.42433994    0.52997012    0.43550959    0.26290000
opls_700-31    C    0.48079016    0.56410011    0.60112055    0.00180000
opls_142-32    C    0.51993032    0.54151030    0.70841918    0.10460000
opls_700-33    C    0.37158006    0.64162001    0.35081918    0.07920000
opls_145-34    C    0.39471999    0.70370992    0.33812877    -0.13580000
opls_145-35    C    0.60481009    0.30099989    0.90067945    -0.13580000
opls_700-36    C    0.63628992    0.26962024    0.89232055    0.07360000
opls_700-37    C    0.60568020    0.20565005    0.84776986    0.08420000
opls_145-38    C    0.54481001    0.16855992    0.95307945    -0.20480000
opls_145-39    C    0.51494983    0.10809000    0.89041096    -0.21270000
opls_145-40    C    0.54310984    0.07988982    0.72304110    0.20260000
opls_145-41    C    0.60318002    0.11562980    0.62292877    -0.21240000
opls_145-42    C    0.63382030    0.17617025    0.68187123    -0.20480000
opls_145-43    C    0.37572021    0.87578013    0.66933973    -0.20520000
opls_145-44    C    0.34981021    0.81644012    0.58349863    -0.20480000
opls_700-45    C    0.38356001    0.79320003    0.41687945    0.08480000
opls_145-46    C    0.44423014    0.83496038    0.34247123    -0.23270000
opls_166-47    C    0.47002994    0.89437002    0.43550959    0.26290000
opls_700-48    C    0.43590007    0.91668999    0.60112055    0.00180000
opls_142-49    C    0.45849020    0.97842041    0.70841918    0.10460000
opls_700-50    C    0.35837990    0.72996020    0.35081918    0.07920000
opls_750-51    N    0.98174994    0.49558028    0.64926027    -0.21350000
opls_750-52    N    0.50442028    0.48617021    0.64926027    -0.21370000
opls_750-53    N    0.51383000    0.01824996    0.64926027    -0.21370000
opls_167-54    O    0.07023033    0.60003031    0.36041918    -0.47020000
opls_167-55    O    0.39997018    0.47020007    0.36041918    -0.47020000
opls_167-56    O    0.52980011    0.92977007    0.36041918    -0.47030000
opls_146-57    H    0.26702011    0.71021993    0.35675890    0.21190000
opls_146-58    H    0.81188000    0.33274995    0.08935068    0.11460000
opls_146-59    H    0.91798018    0.38616015    0.97720000    0.11270000
opls_146-60    H    0.90479018    0.53127021    0.48872055    0.11160000
opls_146-61    H    0.79796012    0.47803020    0.58495890    0.10350000
opls_146-62    H    0.10944990    0.45690020    0.80384110    0.11430000
opls_146-63    H    0.21336987    0.51648003    0.66155068    0.11270000
opls_146-64    H    0.17980016    0.65233017    0.20841918    0.11460000
opls_144-65    H    0.01113984    0.43751988    0.83584932    0.10620000
opls_168-66    H    0.03427997    0.57603028    0.48961096    0.33590000
opls_146-67    H    0.71954015    0.44408996    0.88764932    0.10030000
opls_146-68    H    0.28978016    0.55680013    0.35675890    0.21200000
opls_146-69    H    0.66725015    0.47913006    0.08935068    0.11460000
opls_146-70    H    0.61383981    0.53181991    0.97720000    0.11270000
opls_146-71    H    0.46873010    0.37352011    0.48872055    0.11150000
opls_146-72    H    0.52197020    0.31993016    0.58495890    0.10350000
opls_146-73    H    0.54309981    0.65254997    0.80384110    0.11430000
opls_146-74    H    0.48352008    0.69689002    0.66155068    0.11270000
opls_146-75    H    0.34767000    0.52747005    0.20841918    0.11460000
opls_144-76    H    0.56248030    0.57362031    0.83584932    0.10620000
opls_168-77    H    0.42396987    0.45824989    0.48961096    0.33590000
opls_146-78    H    0.55590980    0.27544995    0.88764932    0.10040000
opls_146-79    H    0.44320012    0.73297994    0.35675890    0.21190000
opls_146-80    H    0.52086984    0.18811998    0.08935068    0.11460000
opls_146-81    H    0.46818002    0.08201993    0.97720000    0.11270000
opls_146-82    H    0.62647995    0.09521014    0.48872055    0.11460000
opls_146-83    H    0.68006990    0.20204010    0.58495890    0.10350000
opls_146-84    H    0.34745012    0.89055029    0.80384110    0.11430000
opls_146-85    H    0.30311005    0.78662995    0.66155068    0.11270000
opls_146-86    H    0.47253007    0.82020023    0.20841918    0.11460000
opls_144-87    H    0.42638008    0.98886027    0.83584932    0.10630000
opls_168-88    H    0.54175000    0.96572029    0.48961096    0.33590000
opls_146-89    H    0.72455005    0.28046010    0.88764932    0.10030000
