#======================================================================
# Crystal Data Generated By AuToFF
#----------------------------------------------------------------------

data_AuToFF_phase_1

_cell_length_a                         28.1839
_cell_length_b                         28.3352
_cell_length_c                         3.6697
_cell_angle_alpha                      105.80
_cell_angle_beta                       72.22
_cell_angle_gamma                      101.15
_symmetry_space_group_name_H-M_alt     'P 1'
_symmetry_space_group_IT_number        1

loop_
_space_group_symop_operation_xyz
   'x, y, z'

loop_
   _atom_site_label
   _atom_site_type_symbol
   _atom_site_fract_x
   _atom_site_fract_y
   _atom_site_fract_z
   _atom_site_charge
opls_700-0    C    0.77261020    0.39479001    0.71850025    0.03680000
opls_145-1    C    0.81892005    0.38794999    0.74590041    -0.07380000
opls_700-2    C    0.83179026    0.34245004    0.73303215    0.03790000
opls_700-3    C    0.79602007    0.30041989    0.68177075    0.04030000
opls_700-4    C    0.74793025    0.30589995    0.66028153    0.03220000
opls_700-5    C    0.73598004    0.35323992    0.68359018    0.04040000
opls_145-6    C    0.80685019    0.25325994    0.65255998    -0.07520000
opls_145-7    C    0.77191999    0.21202986    0.59755097    -0.07500000
opls_700-8    C    0.72457998    0.21634998    0.57136181    0.03410000
opls_700-9    C    0.71191007    0.26378009    0.61021936    0.02960000
opls_700-10    C    0.66347023    0.26914989    0.59675149    0.03890000
opls_145-11    C    0.65271014    0.31630000    0.62326104    -0.10780000
opls_145-12    C    0.68826002    0.35744012    0.66422019    -0.10790000
opls_700-13    C    0.68928012    0.17436018    0.51186155    0.04150000
opls_145-14    C    0.64179000    0.18077984    0.50732033    -0.07730000
opls_700-15    C    0.62755998    0.22693004    0.55043987    0.03760000
opls_700-16    C    0.88328004    0.34240018    0.76733085    0.08570000
opls_700-17    C    0.69972005    0.12304000    0.44727042    0.08430000
opls_700-18    C    0.76728010    0.44563012    0.70569078    0.08380000
opls_700-19    C    0.57506018    0.22759993    0.54264190    0.08350000
opls_145-20    C    0.90492003    0.29886015    0.68995964    -0.07340000
opls_145-21    C    0.95367002    0.30072007    0.71656031    -0.09170000
opls_700-22    C    0.98171012    0.34630990    0.82108184    0.00700000
opls_145-23    C    0.96051009    0.38985996    0.89909087    -0.10790000
opls_145-24    C    0.91196030    0.38784989    0.87261072    -0.09170000
opls_145-25    C    0.66055994    0.08720002    0.57154110    -0.09180000
opls_145-26    C    0.66909990    0.03827008    0.49828198    -0.09010000
opls_700-27    C    0.71687993    0.02429993    0.29690168    -0.00100000
opls_145-28    C    0.75605008    0.05977993    0.16920965    -0.09030000
opls_145-29    C    0.74742998    0.10871984    0.24223951    -0.09180000
opls_145-30    C    0.54657996    0.18285998    0.41711907    -0.09170000
opls_145-31    C    0.49689025    0.18158994    0.41927946    -0.10740000
opls_700-32    C    0.47441006    0.22517993    0.54765047    -0.00560000
opls_145-33    C    0.50230029    0.27001018    0.67321151    -0.09180000
opls_145-34    C    0.55209000    0.27111985    0.67158020    -0.07340000
opls_145-35    C    0.81092005    0.47918006    0.63415996    -0.09050000
opls_145-36    C    0.80867999    0.52678014    0.61388173    -0.07480000
opls_700-37    C    0.76258016    0.54232005    0.66374990    -0.00780000
opls_145-38    C    0.71851018    0.50954001    0.73717951    -0.07350000
opls_145-39    C    0.72091000    0.46149999    0.75822196    -0.07560000
opls_141-40    C    0.03305998    0.34867998    0.84712110    0.53310000
opls_141-41    C    0.76168032    0.59268007    0.63470079    0.51240000
opls_141-42    C    0.42197025    0.22382011    0.55160971    0.51090000
opls_141-43    C    0.72590025    0.97295007    0.22617036    0.51280000
opls_523-44    C    0.28596006    0.32745016    0.82571124    -0.07340000
opls_145-45    C    0.33488999    0.32134002    0.80019223    -0.10920000
opls_523-46    C    0.34942005    0.27404012    0.69788988    0.24180000
opls_522-47    C    0.31445011    0.23269007    0.62346973    -0.17600000
opls_521-48    C    0.26548022    0.23845981    0.64890937    0.22580000
opls_700-49    C    0.25086999    0.28610995    0.74930118    0.04230000
opls_521-50    C    0.18386025    0.20076996    0.59188106    0.16950000
opls_700-51    C    0.16762010    0.24802987    0.68451018    0.06650000
opls_700-52    C    0.20168012    0.29091001    0.76536152    0.03460000
opls_523-53    C    0.11911027    0.25379008    0.68936003    -0.16380000
opls_145-54    C    0.10393013    0.30050989    0.77673955    0.23850000
opls_145-55    C    0.13762022    0.34247991    0.86090054    -0.10680000
opls_608-56    C    0.18606030    0.33777008    0.85472213    -0.09010000
opls_700-57    C    0.15112996    0.15345017    0.50736148    0.04420000
opls_523-58    C    0.09872025    0.14958008    0.66024038    -0.07350000
opls_145-59    C    0.06910018    0.10434989    0.58375096    -0.07800000
opls_145-60    C    0.09158992    0.06226006    0.35559070    -0.07790000
opls_145-61    C    0.14367996    0.06542981    0.20481928    -0.07800000
opls_523-62    C    0.17324015    0.11071009    0.28139981    -0.07350000
opls_523-63    C    0.74290031    0.82801016    0.34288116    -0.10740000
opls_145-64    C    0.73826009    0.87451007    0.31111908    -0.10680000
opls_523-65    C    0.69080035    0.88913009    0.38923099    0.23510000
opls_522-66    C    0.64776024    0.85666016    0.50231176    -0.17470000
opls_521-67    C    0.65215012    0.80970015    0.53372113    0.22550000
opls_700-68    C    0.69999006    0.79525983    0.45493905    0.04410000
opls_521-69    C    0.61212026    0.73190999    0.67737944    0.12410000
opls_700-70    C    0.65959024    0.71617002    0.60822945    0.01260000
opls_700-71    C    0.70366997    0.74854990    0.49493118    0.03700000
opls_523-72    C    0.66453008    0.66998995    0.65759207    -0.14740000
opls_145-73    C    0.71182008    0.65597992    0.59442944    0.23810000
opls_145-74    C    0.75475028    0.68823000    0.47706905    -0.13720000
opls_608-75    C    0.75082010    0.73395008    0.42869992    -0.07520000
opls_700-76    C    0.56358019    0.70081005    0.79250008    0.04040000
opls_523-77    C    0.52024009    0.72368979    0.00522020    -0.07350000
opls_145-78    C    0.47383024    0.69546993    0.10960064    -0.07800000
opls_145-79    C    0.47019013    0.64395997    0.00000882    -0.07800000
opls_145-80    C    0.51292030    0.62071000    0.78514007    -0.07800000
opls_523-81    C    0.55927011    0.64898989    0.68092129    -0.07350000
opls_520-82    N    0.23222010    0.19800992    0.57482136    -0.23550000
opls_750-83    N    0.05417022    0.30411989    0.77290083    -0.27520000
opls_750-84    N    0.39998022    0.26921009    0.67209164    -0.27550000
opls_520-85    N    0.61037021    0.77816018    0.64116138    -0.23850000
opls_750-86    N    0.71565035    0.60894997    0.65171053    -0.27540000
opls_750-87    N    0.68552008    0.93736006    0.36695991    -0.27550000
opls_272-88    O    0.39779003    0.18409997    0.45164116    -0.31690000
opls_272-89    O    0.76771004    0.96059979    0.04878945    -0.34970000
opls_272-90    O    0.80083019    0.62048010    0.59745104    -0.31000000
opls_272-91    O    0.05737023    0.38850009    0.93196107    -0.29960000
opls_146-92    H    0.84899030    0.42085004    0.78123080    0.05040000
opls_146-93    H    0.84497003    0.24813984    0.67391988    0.05040000
opls_146-94    H    0.78163999    0.17385001    0.57296960    0.05040000
opls_146-95    H    0.61415005    0.32154004    0.61138920    0.05040000
opls_146-96    H    0.67873014    0.39547999    0.68264079    0.05040000
opls_146-97    H    0.61236025    0.14740009    0.46694022    0.05040000
opls_146-98    H    0.88267017    0.26141001    0.60424964    0.05040000
opls_146-99    H    0.97076014    0.26505019    0.65309200    0.05040000
opls_146-100    H    0.98302010    0.42715987    0.98468037    0.05040000
opls_146-101    H    0.89472025    0.42345023    0.93675213    0.05040000
opls_146-102    H    0.62135997    0.09804009    0.73395215    0.05040000
opls_146-103    H    0.63710028    0.00949008    0.60255954    0.05040000
opls_146-104    H    0.79511005    0.04866008    0.00507029    0.05040000
opls_146-105    H    0.77952016    0.13718995    0.13392923    0.05040000
opls_146-106    H    0.56415004    0.14684004    0.31133953    0.05040000
opls_146-107    H    0.47444990    0.14493992    0.31620113    0.05040000
opls_146-108    H    0.48435025    0.30580012    0.77733035    0.05040000
opls_146-109    H    0.57412007    0.30795007    0.77663962    0.05040000
opls_146-110    H    0.84908033    0.46742002    0.59156950    0.05040000
opls_146-111    H    0.84458027    0.55343014    0.55625968    0.05040000
opls_146-112    H    0.68067008    0.52198996    0.77981994    0.05040000
opls_146-113    H    0.68504023    0.43486985    0.81843059    0.05040000
opls_526-114    H    0.27429012    0.36614999    0.90894047    0.05040000
opls_617-115    H    0.36320033    0.35504013    0.86296981    0.05040000
opls_525-116    H    0.32598007    0.19395005    0.54136037    0.05040000
opls_526-117    H    0.09125020    0.21988987    0.62100953    0.05040000
opls_146-118    H    0.12542007    0.38084011    0.93512082    0.05040000
opls_617-119    H    0.21315006    0.37235006    0.92296975    0.05040000
opls_526-120    H    0.07990027    0.18358014    0.84909043    0.05040000
opls_146-121    H    0.02657997    0.10180990    0.70760133    0.05040000
opls_146-122    H    0.06742006    0.02535994    0.29261030    0.05040000
opls_146-123    H    0.16209994    0.03107021    0.01921127    0.05040000
opls_526-124    H    0.21579009    0.11324016    0.16000082    0.05040000
opls_526-125    H    0.78170999    0.81635981    0.27769923    0.05040000
opls_617-126    H    0.77326012    0.90110992    0.22084140    0.05040000
opls_525-127    H    0.60898003    0.86846982    0.56911030    0.05040000
opls_526-128    H    0.62965002    0.64337020    0.75041224    0.05040000
opls_146-129    H    0.79354006    0.67698012    0.42008189    0.05040000
opls_617-130    H    0.78614000    0.75997975    0.33431898    0.05040000
opls_526-131    H    0.52267003    0.76570987    0.09465135    0.05040000
opls_146-132    H    0.43895020    0.71449995    0.28417157    0.05040000
opls_146-133    H    0.43236003    0.62092976    0.08596866    0.05040000
opls_146-134    H    0.50997008    0.57867011    0.69483006    0.05040000
opls_526-135    H    0.59382008    0.62956982    0.50341106    0.05040000
