#======================================================================
# Crystal Data Generated By AuToFF
#----------------------------------------------------------------------

data_AuToFF_phase_1

_cell_length_a                         33.5000
_cell_length_b                         34.0000
_cell_length_c                         6.8000
_cell_angle_alpha                      90.00
_cell_angle_beta                       90.00
_cell_angle_gamma                      66.00
_symmetry_space_group_name_H-M_alt     'P 1'
_symmetry_space_group_IT_number        1

loop_
_space_group_symop_operation_xyz
   'x, y, z'

loop_
   _atom_site_label
   _atom_site_type_symbol
   _atom_site_fract_x
   _atom_site_fract_y
   _atom_site_fract_z
   _atom_site_charge
opls_145-0    C    0.05717992    0.79476989    0.99615000    -0.24840000
opls_700-1    C    0.05950011    0.83574985    0.99627059    0.03280000
opls_700-2    C    0.10172983    0.83865997    0.99596029    0.03270000
opls_145-3    C    0.14041013    0.80061976    0.99256029    -0.23160000
opls_700-4    C    0.02057995    0.87408980    0.99745000    0.03270000
opls_700-5    C    0.10404013    0.87990972    0.99950000    0.03080000
opls_700-6    C    0.06432989    0.91902977    0.00032941    0.03120000
opls_700-7    C    0.02300003    0.91621977    0.99828971    0.03230000
opls_145-8    C    0.06697010    0.95983973    0.00216029    -0.23210000
opls_145-9    C    0.14495007    0.88302976    0.00150000    -0.23370000
opls_166-10    C    0.18180995    0.84533983    0.99873971    0.18180000
opls_166-11    C    0.17962993    0.80490976    0.99368971    0.17860000
opls_166-12    C    0.01663989    0.79334976    0.99706029    0.17840000
opls_166-13    C    0.97855991    0.83087003    0.99801029    0.17760000
opls_145-14    C    0.97949988    0.87131973    0.99832059    -0.23850000
opls_145-15    C    0.98435991    0.95428993    0.99737059    -0.23610000
opls_166-16    C    0.02871991    0.99610986    0.00160000    0.18030000
opls_166-17    C    0.98820979    0.99342993    0.99903971    0.17760000
opls_145-18    C    0.95657007    0.10988988    0.00087941    -0.23880000
opls_145-19    C    0.91160014    0.13116992    0.99957941    -0.09950000
opls_700-20    C    0.89194008    0.17630982    0.99936029    0.07940000
opls_700-21    C    0.91904002    0.19992981    0.00053971    -0.00260000
opls_700-22    C    0.96522982    0.17783008    0.00196029    0.07990000
opls_145-23    C    0.98303001    0.13268986    0.00208971    -0.09420000
opls_145-24    C    0.84565990    0.19946009    0.99790000    -0.12390000
opls_700-25    C    0.89987012    0.24578992    0.00031029    -0.00220000
opls_700-26    C    0.85368991    0.26791992    0.99883971    0.07990000
opls_145-27    C    0.82731005    0.24336981    0.99761029    -0.12490000
opls_145-28    C    0.83586001    0.31305981    0.99872941    -0.09420000
opls_145-29    C    0.86231002    0.33587010    0.00011029    -0.23880000
opls_145-30    C    0.90724994    0.31453983    0.00152059    -0.10740000
opls_700-31    C    0.92695006    0.26940991    0.00160000    0.07990000
opls_145-32    C    0.97321990    0.24629989    0.00297059    -0.12390000
opls_145-33    C    0.99161011    0.20237987    0.00312941    -0.12490000
opls_145-34    C    0.52414996    0.67336992    0.99697059    -0.23890000
opls_145-35    C    0.50405004    0.71795992    0.01192941    -0.10740000
opls_700-36    C    0.45869983    0.73906998    0.01136029    0.07990000
opls_700-37    C    0.43351991    0.71368987    0.99357059    -0.00150000
opls_700-38    C    0.45437995    0.66785005    0.97731029    0.08380000
opls_145-39    C    0.49983003    0.64850977    0.97982059    -0.10740000
opls_145-40    C    0.43684999    0.78498996    0.02877941    -0.12380000
opls_700-41    C    0.38739015    0.73422975    0.99260000    -0.00220000
opls_700-42    C    0.36652981    0.78003995    0.00976029    0.07990000
opls_145-43    C    0.39266996    0.80463997    0.02818971    -0.12500000
opls_145-44    C    0.32105985    0.79937992    0.00900000    -0.10720000
opls_145-45    C    0.29675998    0.77447985    0.99285000    -0.23890000
opls_145-46    C    0.31687990    0.72993975    0.97605000    -0.10750000
opls_700-47    C    0.36221989    0.70883999    0.97508971    0.07210000
opls_145-48    C    0.38404997    0.66291003    0.95767059    -0.12390000
opls_145-49    C    0.42822988    0.64324006    0.95870000    -0.12500000
opls_145-50    C    0.76419004    0.65091990    0.00430000    -0.23920000
opls_700-51    C    0.76159998    0.61006003    0.00357941    0.03430000
opls_700-52    C    0.71923015    0.60752981    0.00250000    0.03250000
opls_145-53    C    0.68079000    0.64581986    0.00485000    -0.24020000
opls_700-54    C    0.80031987    0.57152980    0.00298971    0.03240000
opls_700-55    C    0.71655988    0.56646003    0.99857941    0.03120000
opls_700-56    C    0.75604998    0.52711977    0.99897941    0.03160000
opls_700-57    C    0.79754999    0.52952990    0.00196029    0.03240000
opls_145-58    C    0.75304002    0.48644985    0.99732941    -0.23610000
opls_145-59    C    0.67548004    0.56372988    0.99496029    -0.22730000
opls_166-60    C    0.63885003    0.60162006    0.99667941    0.18180000
opls_166-61    C    0.64142985    0.64186983    0.00222059    0.17860000
opls_166-62    C    0.80484981    0.65200005    0.00431029    0.17850000
opls_166-63    C    0.84277012    0.61430979    0.00372941    0.17770000
opls_145-64    C    0.84153988    0.57398984    0.00306029    -0.24320000
opls_145-65    C    0.83597008    0.49117997    0.00360000    -0.24320000
opls_166-66    C    0.79105000    0.44991991    0.99870000    0.17950000
opls_166-67    C    0.83176006    0.45219000    0.00178971    0.17750000
opls_145-68    C    0.88734002    0.69676004    0.00335000    -0.23850000
opls_145-69    C    0.86579004    0.74153999    0.00092941    -0.04750000
opls_145-70    C    0.88920997    0.76731996    0.99967941    -0.03830000
opls_145-71    C    0.93450003    0.74809976    0.00087059    -0.23850000
opls_145-72    C    0.95605992    0.70332979    0.00367059    -0.04960000
opls_145-73    C    0.93265014    0.67754982    0.00492941    -0.05060000
opls_145-74    C    0.04056999    0.83177986    0.49680000    -0.24320000
opls_700-75    C    0.04327999    0.87257985    0.49712059    0.03430000
opls_700-76    C    0.08569981    0.87500994    0.49745000    0.03040000
opls_145-77    C    0.12410003    0.83667997    0.49450000    -0.22940000
opls_700-78    C    0.00463006    0.91117994    0.49795000    0.03230000
opls_700-79    C    0.08846985    0.91603980    0.50116029    0.03160000
opls_700-80    C    0.04902995    0.95543994    0.50138971    0.03080000
opls_700-81    C    0.00748981    0.95312993    0.49883971    0.03270000
opls_145-82    C    0.05214982    0.99606993    0.50315000    -0.23160000
opls_145-83    C    0.12957000    0.91869977    0.50388971    -0.22690000
opls_166-84    C    0.16616000    0.88077996    0.50165000    0.18180000
opls_166-85    C    0.16350998    0.84054983    0.49636029    0.17840000
opls_166-86    C    0.99985998    0.83080982    0.49727941    0.17840000
opls_166-87    C    0.96199979    0.86856994    0.49796029    0.17770000
opls_145-88    C    0.96335004    0.90883999    0.49836029    -0.23850000
opls_145-89    C    0.96913001    0.99152977    0.49753971    -0.23920000
opls_166-90    C    0.01417995    0.03264012    0.50212059    0.17950000
opls_166-91    C    0.97343018    0.03046984    0.49928971    0.17680000
opls_145-92    C    0.94309985    0.14675014    0.50082059    -0.23880000
opls_145-93    C    0.89816991    0.16808009    0.49933971    -0.10760000
opls_700-94    C    0.87845995    0.21321000    0.49916029    0.07990000
opls_700-95    C    0.90555003    0.23683000    0.50043971    -0.00150000
opls_700-96    C    0.95172988    0.21469002    0.50191029    0.07990000
opls_145-97    C    0.96957000    0.16956010    0.50211029    -0.09420000
opls_145-98    C    0.83220002    0.23633001    0.49770000    -0.12400000
opls_700-99    C    0.88637983    0.28269010    0.50023971    -0.00260000
opls_700-100    C    0.84019003    0.30478984    0.49885000    0.07990000
opls_145-101    C    0.81381004    0.28024005    0.49756029    -0.12370000
opls_145-102    C    0.82238984    0.34993006    0.49882941    -0.09410000
opls_145-103    C    0.84885008    0.37273004    0.50012941    -0.23880000
opls_145-104    C    0.89382987    0.35144999    0.50136029    -0.09950000
opls_700-105    C    0.91348007    0.30631009    0.50145000    0.07940000
opls_145-106    C    0.95975996    0.28315983    0.50280000    -0.12390000
opls_145-107    C    0.97810980    0.23925011    0.50306029    -0.12450000
opls_145-108    C    0.50821997    0.70785997    0.50433971    -0.23880000
opls_145-109    C    0.48809989    0.75239975    0.52115000    -0.10750000
opls_700-110    C    0.44276013    0.77350981    0.52210000    0.07990000
opls_700-111    C    0.41758002    0.74812004    0.50457059    -0.00150000
opls_700-112    C    0.43844991    0.70230984    0.48741029    0.07870000
opls_145-113    C    0.48392010    0.68295990    0.48817059    -0.10720000
opls_145-114    C    0.42091989    0.81943977    0.53957941    -0.12390000
opls_700-115    C    0.37144995    0.76865992    0.50360000    -0.00150000
opls_700-116    C    0.35058992    0.81449974    0.51987059    0.08380000
opls_145-117    C    0.37673998    0.83910974    0.53853971    -0.12500000
opls_145-118    C    0.30513991    0.83382973    0.51737059    -0.10740000
opls_145-119    C    0.28081985    0.80896990    0.50025000    -0.23890000
opls_145-120    C    0.30092992    0.76437990    0.48527941    -0.10740000
opls_700-121    C    0.34627989    0.74327982    0.48582941    0.07240000
opls_145-122    C    0.36813003    0.69735983    0.46845000    -0.12390000
opls_145-123    C    0.41229991    0.67770983    0.46903971    -0.12500000
opls_145-124    C    0.74756995    0.68792987    0.50500000    -0.24840000
opls_700-125    C    0.74539001    0.64689003    0.50441029    0.03270000
opls_700-126    C    0.70320998    0.64387978    0.50386029    0.03270000
opls_145-127    C    0.66448988    0.68187975    0.50662941    -0.22940000
opls_700-128    C    0.78436998    0.60861994    0.50347941    0.03270000
opls_700-129    C    0.70097987    0.60258978    0.50008971    0.03080000
opls_700-130    C    0.74075989    0.56352994    0.49987941    0.03160000
opls_700-131    C    0.78203976    0.56644007    0.50241029    0.03230000
opls_145-132    C    0.73822004    0.52268006    0.49815000    -0.23450000
opls_145-133    C    0.66011012    0.59939988    0.49720000    -0.23370000
opls_166-134    C    0.62319986    0.63704989    0.49947941    0.17950000
opls_166-135    C    0.62532005    0.67750990    0.50476029    0.17870000
opls_166-136    C    0.78805995    0.68946976    0.50462941    0.17840000
opls_166-137    C    0.82620987    0.65201003    0.50378971    0.17680000
opls_145-138    C    0.82538987    0.61150978    0.50316029    -0.24310000
opls_145-139    C    0.82073009    0.52842979    0.50367941    -0.23610000
opls_166-140    C    0.77652008    0.48645983    0.49908971    0.18080000
opls_166-141    C    0.81697991    0.48923989    0.50195000    0.17680000
opls_145-142    C    0.86993994    0.73503979    0.50168971    -0.23850000
opls_145-143    C    0.84836997    0.77981974    0.49888971    -0.04750000
opls_145-144    C    0.87179013    0.80558973    0.49761029    -0.04750000
opls_145-145    C    0.91710991    0.78636985    0.49916029    -0.23850000
opls_145-146    C    0.93865010    0.74159988    0.50162059    -0.04960000
opls_145-147    C    0.91522987    0.71581991    0.50290000    -0.03890000
opls_146-148    H    0.14832007    0.91383990    0.00510000    0.07350000
opls_146-149    H    0.09780012    0.96361977    0.00373971    0.11290000
opls_146-150    H    0.95200983    0.95382986    0.99505000    0.11150000
opls_146-151    H    0.14032009    0.76835986    0.98887941    0.06390000
opls_146-152    H    0.08604010    0.76460977    0.99580000    0.11860000
opls_146-153    H    0.94892986    0.89974002    0.99972059    0.12040000
opls_146-154    H    0.80101005    0.33321979    0.99771029    0.11710000
opls_146-155    H    0.02706017    0.18521984    0.00423971    0.11170000
opls_146-156    H    0.99383015    0.26462989    0.00392059    0.09120000
opls_146-157    H    0.82499000    0.18118997    0.99696029    0.09120000
opls_146-158    H    0.89333008    0.11061008    0.99872059    0.06330000
opls_146-159    H    0.01783001    0.11233993    0.00308971    0.11670000
opls_146-160    H    0.79185980    0.26057008    0.99641029    0.11220000
opls_146-161    H    0.92543998    0.33516985    0.00253971    0.06570000
opls_146-162    H    0.30228004    0.83414975    0.02211029    0.11280000
opls_146-163    H    0.44440003    0.60808002    0.94460000    0.09990000
opls_146-164    H    0.36455007    0.64361996    0.94265000    0.10990000
opls_146-165    H    0.45632995    0.80429001    0.04367059    0.07300000
opls_146-166    H    0.52610999    0.73449987    0.02497941    0.07680000
opls_146-167    H    0.51874984    0.61373994    0.96783971    0.11490000
opls_146-168    H    0.37648998    0.83977972    0.04262941    0.08470000
opls_146-169    H    0.29468005    0.71353984    0.96336029    0.10700000
opls_146-170    H    0.67180977    0.53307008    0.99075000    0.07350000
opls_146-171    H    0.72204010    0.48300980    0.99510000    0.11220000
opls_146-172    H    0.86842982    0.49135994    0.00652941    0.11220000
opls_146-173    H    0.68113998    0.67796997    0.00895000    0.06800000
opls_146-174    H    0.73549003    0.68120977    0.00443971    0.11960000
opls_146-175    H    0.87198000    0.54540985    0.00222059    0.12180000
opls_146-176    H    0.83031992    0.75381988    0.99992941    0.11610000
opls_146-177    H    0.87424000    0.80255984    0.99753971    0.09990000
opls_146-178    H    0.99153983    0.69103992    0.00487059    0.11570000
opls_146-179    H    0.94764996    0.64230994    0.00725000    0.10000000
opls_146-180    H    0.13330982    0.94932994    0.50777941    0.07550000
opls_146-181    H    0.08317985    0.99942982    0.50518971    0.11280000
opls_146-182    H    0.93663001    0.99142997    0.49490000    0.11150000
opls_146-183    H    0.12368007    0.80455980    0.49051029    0.11210000
opls_146-184    H    0.06921998    0.80143977    0.49661029    0.11860000
opls_146-185    H    0.93296007    0.93746988    0.49933971    0.12050000
opls_146-186    H    0.78761002    0.37030993    0.49787059    0.11720000
opls_146-187    H    0.01355999    0.22203985    0.50417059    0.11220000
opls_146-188    H    0.98043010    0.30141997    0.50368971    0.09290000
opls_146-189    H    0.81159000    0.21799002    0.49667059    0.07610000
opls_146-190    H    0.88000005    0.14743010    0.49836029    0.06570000
opls_146-191    H    0.00442007    0.14942008    0.50317059    0.11730000
opls_146-192    H    0.77835998    0.29740008    0.49640000    0.11170000
opls_146-193    H    0.91212004    0.37197989    0.50226029    0.08910000
opls_146-194    H    0.28621997    0.86859988    0.52940000    0.11490000
opls_146-195    H    0.42849011    0.64255977    0.45465000    0.08360000
opls_146-196    H    0.34863986    0.67804981    0.45361029    0.09070000
opls_146-197    H    0.44042009    0.83872984    0.55466029    0.10990000
opls_146-198    H    0.51029984    0.76878999    0.53388971    0.07680000
opls_146-199    H    0.50268977    0.64819007    0.47510000    0.11280000
opls_146-200    H    0.36057993    0.87425979    0.55270000    0.08740000
opls_146-201    H    0.27888000    0.74781998    0.47227941    0.10710000
opls_146-202    H    0.65679994    0.56855980    0.49331029    0.07550000
opls_146-203    H    0.70743004    0.51882983    0.49637059    0.11340000
opls_146-204    H    0.85305000    0.52896005    0.50630000    0.11150000
opls_146-205    H    0.66450981    0.71416990    0.51040000    0.06390000
opls_146-206    H    0.71866007    0.71803976    0.50528971    0.11950000
opls_146-207    H    0.85600983    0.58315001    0.50190000    0.12210000
opls_146-208    H    0.81288997    0.79216981    0.49766029    0.11560000
opls_146-209    H    0.85676994    0.84083991    0.49523971    0.12750000
opls_146-210    H    0.97411986    0.72935991    0.50257059    0.11610000
opls_146-211    H    0.93015005    0.68059001    0.50502941    0.11430000
opls_167-212    O    0.22491975    0.83979002    0.99948971    -0.30880000
opls_167-213    O    0.22138994    0.77332983    0.99061029    -0.30870000
opls_167-214    O    0.00574995    0.75794988    0.99782941    -0.30880000
opls_167-215    O    0.94319008    0.81956984    0.99926029    -0.31620000
opls_167-216    O    0.95601004    0.03471993    0.99850000    -0.32900000
opls_167-217    O    0.02261993    0.03904986    0.00271029    -0.30880000
opls_167-218    O    0.59562997    0.60754977    0.99403971    -0.30880000
opls_167-219    O    0.59979009    0.67373984    0.00375000    -0.30880000
opls_167-220    O    0.81603005    0.68724990    0.00440000    -0.30810000
opls_167-221    O    0.87833002    0.62534984    0.00355000    -0.31320000
opls_167-222    O    0.86363994    0.41074997    0.00272059    -0.32890000
opls_167-223    O    0.79671999    0.40712994    0.99772059    -0.30880000
opls_167-224    O    0.20939012    0.87478973    0.50357059    -0.30880000
opls_167-225    O    0.20514001    0.80864988    0.49427941    -0.30880000
opls_167-226    O    0.98853998    0.79564979    0.49757941    -0.30810000
opls_167-227    O    0.92635999    0.85766994    0.49857059    -0.31160000
opls_167-228    O    0.94161989    0.07194013    0.49852059    -0.32900000
opls_167-229    O    0.00860984    0.07541013    0.50312059    -0.30880000
opls_167-230    O    0.58009996    0.64255977    0.49803971    -0.30880000
opls_167-231    O    0.58353980    0.70904990    0.50730000    -0.30880000
opls_167-232    O    0.79880993    0.72494982    0.50426029    -0.30870000
opls_167-233    O    0.86149008    0.66344994    0.50297941    -0.32920000
opls_167-234    O    0.84924998    0.44797983    0.50271029    -0.32900000
opls_167-235    O    0.78271988    0.44348989    0.49805000    -0.30880000
MOF2_B_2-236    B    0.24846991    0.79548978    0.99427941    0.60680000
MOF2_B_2-237    B    0.96067003    0.77480985    0.99927941    0.60680000
MOF2_B_2-238    B    0.97791005    0.06197991    0.00077059    0.60680000
MOF2_B_2-239    B    0.57240989    0.65188994    0.99851029    0.60680000
MOF2_B_2-240    B    0.86113002    0.67009985    0.00387941    0.60690000
MOF2_B_2-241    B    0.84136992    0.38381001    0.00016029    0.60680000
MOF2_B_2-242    B    0.23255991    0.83044988    0.49902059    0.60680000
MOF2_B_2-243    B    0.94343999    0.81291993    0.49837059    0.60690000
MOF2_B_2-244    B    0.96398009    0.09880991    0.50087059    0.60680000
MOF2_B_2-245    B    0.55649989    0.68685004    0.50317059    0.60690000
MOF2_B_2-246    B    0.84388983    0.70820993    0.50307941    0.60680000
MOF2_B_2-247    B    0.82742980    0.42064001    0.50027059    0.60680000
