#======================================================================
# Crystal Data Generated By AuToFF
#----------------------------------------------------------------------

data_AuToFF_phase_1

_cell_length_a                         29.6300
_cell_length_b                         29.6300
_cell_length_c                         4.5400
_cell_angle_alpha                      90.00
_cell_angle_beta                       90.00
_cell_angle_gamma                      120.00
_symmetry_space_group_name_H-M_alt     'P 1'
_symmetry_space_group_IT_number        1

loop_
_space_group_symop_operation_xyz
   'x, y, z'

loop_
   _atom_site_label
   _atom_site_type_symbol
   _atom_site_fract_x
   _atom_site_fract_y
   _atom_site_fract_z
   _atom_site_charge
opls_700-0    C    0.27189982    0.14527989    0.75027093    -0.10900000
opls_166-1    C    0.29209001    0.11195998    0.81031938    0.22580000
opls_145-2    C    0.34381986    0.12776999    0.73668943    -0.21890000
opls_700-3    C    0.37519988    0.17489993    0.59011894    -0.20550000
opls_166-4    C    0.35405987    0.20613998    0.50348018    0.24610000
opls_145-5    C    0.30258003    0.19116005    0.58818943    -0.23040000
opls_182-6    C    0.36682987    0.28555985    0.26127974    0.04420000
opls_136-7    C    0.41057997    0.33371005    0.11040088    -0.32210000
opls_139-8    C    0.39545005    0.37555012    0.04738106    0.43620000
opls_139-9    C    0.44149018    0.42507014    0.91805066    0.41240000
MOF2_C_3-10    C    0.42460011    0.45852996    0.82350000    -0.13790000
opls_182-11    C    0.25648004    0.01891012    0.80440969    0.05260000
opls_136-12    C    0.19856000    0.98004001    0.75744053    -0.31940000
opls_139-13    C    0.18901001    0.92803015    0.62716079    0.42940000
opls_961-14    C    0.13096991    0.89099010    0.56446916    0.59750000
opls_234-15    C    0.43053005    0.19123020    0.53446916    0.48010000
opls_142-16    C    0.55830016    0.30442009    0.56944053    0.01370000
opls_700-17    C    0.61358998    0.31876013    0.55277974    0.06070000
opls_145-18    C    0.62844012    0.28055017    0.55203084    -0.16170000
opls_234-19    C    0.21773993    0.13158989    0.83155947    0.47950000
opls_142-20    C    0.11047980    0.04076994    0.26433040    0.02760000
opls_700-21    C    0.05413997    0.02027994    0.28727974    0.05810000
opls_145-22    C    0.03370998    0.05397008    0.28931057    -0.15880000
opls_700-23    C    0.85472004    0.12661996    0.75027093    -0.10900000
opls_166-24    C    0.88804012    0.18013019    0.81031938    0.22580000
opls_145-25    C    0.87222978    0.21604983    0.73668943    -0.21890000
opls_700-26    C    0.82509997    0.20029984    0.59011894    -0.20550000
opls_166-27    C    0.79386018    0.14792016    0.50348018    0.24610000
opls_145-28    C    0.80883986    0.11141985    0.58818943    -0.23040000
opls_182-29    C    0.71444002    0.08127019    0.26127974    0.04420000
opls_136-30    C    0.66628989    0.07687002    0.11040088    -0.32210000
opls_139-31    C    0.62444982    0.01989998    0.04738106    0.43620000
opls_139-32    C    0.57492983    0.01641990    0.91805066    0.41240000
MOF2_C_3-33    C    0.54147013    0.96607019    0.82350000    -0.13790000
opls_182-34    C    0.98109020    0.23757021    0.80440969    0.05260000
opls_136-35    C    0.01996006    0.21852018    0.75744053    -0.31940000
opls_139-36    C    0.07196986    0.26097989    0.62716079    0.42940000
opls_961-37    C    0.10900999    0.23998016    0.56446916    0.59750000
opls_234-38    C    0.80877021    0.23930012    0.53446916    0.48010000
opls_142-39    C    0.69558000    0.25388021    0.56944053    0.01370000
opls_700-40    C    0.68123994    0.29483019    0.55277974    0.06070000
opls_145-41    C    0.71944985    0.34788991    0.55203084    -0.16170000
opls_234-42    C    0.86841018    0.08615010    0.83155947    0.47950000
opls_142-43    C    0.95922993    0.06970994    0.26433040    0.02760000
opls_700-44    C    0.97972010    0.03386005    0.28727974    0.05810000
opls_145-45    C    0.94602994    0.97973993    0.28931057    -0.15880000
opls_700-46    C    0.87338014    0.72810015    0.75027093    -0.10900000
opls_166-47    C    0.81987006    0.70791023    0.81031938    0.22580000
opls_145-48    C    0.78395003    0.65618018    0.73668943    -0.21890000
opls_700-49    C    0.79970015    0.62480023    0.59011894    -0.20550000
opls_166-50    C    0.85208015    0.64594025    0.50348018    0.24610000
opls_145-51    C    0.88858012    0.69742010    0.58818943    -0.23040000
opls_182-52    C    0.91873010    0.63316996    0.26127974    0.04420000
opls_136-53    C    0.92312981    0.58941993    0.11040088    -0.32210000
opls_139-54    C    0.98009979    0.60454990    0.04738106    0.43620000
opls_139-55    C    0.98357999    0.55850996    0.91805066    0.41240000
MOF2_C_3-56    C    0.03392995    0.57540024    0.82350000    -0.13790000
opls_182-57    C    0.76242996    0.74352006    0.80440969    0.05260000
opls_136-58    C    0.78148014    0.80144020    0.75744053    -0.31940000
opls_139-59    C    0.73902012    0.81098996    0.62716079    0.42950000
opls_961-60    C    0.76001996    0.86903013    0.56446916    0.59760000
opls_234-61    C    0.76069994    0.56947007    0.53446916    0.48010000
opls_142-62    C    0.74612004    0.44170009    0.56944053    0.01370000
opls_700-63    C    0.70516994    0.38641007    0.55277974    0.06070000
opls_145-64    C    0.65211003    0.37155991    0.55203084    -0.16170000
opls_234-65    C    0.91384988    0.78226001    0.83155947    0.47950000
opls_142-66    C    0.93028993    0.88952013    0.26433040    0.02760000
opls_700-67    C    0.96613993    0.94586001    0.28727974    0.05810000
opls_145-68    C    0.02026008    0.96628999    0.28931057    -0.15880000
opls_179-69    O    0.38535012    0.25061993    0.33007048    -0.24170000
opls_179-70    O    0.26130008    0.06390019    0.95057048    -0.21090000
opls_236-71    O    0.44207010    0.15876998    0.45848018    -0.37490000
opls_236-72    O    0.19513993    0.14830012    0.68140088    -0.37490000
opls_179-73    O    0.74937992    0.13473015    0.33007048    -0.24170000
opls_179-74    O    0.93609995    0.19740003    0.95057048    -0.21090000
opls_236-75    O    0.84123013    0.28329994    0.45848018    -0.37470000
opls_236-76    O    0.85170012    0.04684001    0.68140088    -0.37490000
opls_179-77    O    0.86526995    0.61464993    0.33007048    -0.24170000
opls_179-78    O    0.80260017    0.73870016    0.95057048    -0.21090000
opls_236-79    O    0.71670011    0.55793008    0.45848018    -0.37490000
opls_236-80    O    0.95316014    0.80486026    0.68140088    -0.37490000
opls_238-81    N    0.46885012    0.24174007    0.57861013    -0.25910000
opls_750-82    N    0.52149978    0.25626989    0.54609031    -0.17250000
opls_238-83    N    0.19255004    0.10072006    0.06864978    -0.25380000
opls_750-84    N    0.13922993    0.08227018    0.11077093    -0.17290000
opls_238-85    N    0.75826008    0.22711010    0.57861013    -0.25920000
opls_750-86    N    0.74373010    0.26523003    0.54609031    -0.17250000
opls_238-87    N    0.89927987    0.09183007    0.06864978    -0.25380000
opls_750-88    N    0.91773004    0.05695991    0.11077093    -0.17280000
opls_238-89    N    0.77289000    0.53115022    0.57861013    -0.25920000
opls_750-90    N    0.73477012    0.47850008    0.54609031    -0.17250000
opls_238-91    N    0.90817028    0.80745025    0.06864978    -0.25380000
opls_750-92    N    0.94304004    0.86076991    0.11077093    -0.17290000
opls_965-93    F    0.37972017    0.38882002    0.30346035    -0.16820000
opls_965-94    F    0.35405988    0.35582005    0.85264978    -0.15020000
opls_965-95    F    0.46296989    0.41291987    0.68281057    -0.16020000
opls_965-96    F    0.47971991    0.45033014    0.12868943    -0.15020000
opls_965-97    F    0.20635004    0.90392992    0.82077093    -0.17340000
opls_965-98    F    0.21670985    0.93750002    0.36824009    -0.16020000
opls_965-99    F    0.10290988    0.87669995    0.82409912    -0.22230000
opls_965-100    F    0.11140985    0.91467997    0.38348018    -0.22020000
opls_965-101    F    0.15346010    0.27811022    0.42688106    -0.22460000
opls_965-102    F    0.61117998    0.99089996    0.30346035    -0.16820000
opls_965-103    F    0.64418012    0.99824008    0.85264978    -0.15020000
opls_965-104    F    0.58708002    0.05005002    0.68281057    -0.16020000
opls_965-105    F    0.54967008    0.02939011    0.12868943    -0.15020000
opls_965-106    F    0.09607000    0.30242012    0.82077093    -0.17340000
opls_965-107    F    0.06250002    0.27920997    0.36824009    -0.16020000
opls_965-108    F    0.12330001    0.22620987    0.82409912    -0.22230000
opls_965-109    F    0.08532018    0.19673013    0.38348018    -0.22030000
opls_965-110    F    0.72188999    0.87535001    0.42688106    -0.22460000
opls_965-111    F    0.00909985    0.62028002    0.30346035    -0.16820000
opls_965-112    F    0.00176020    0.64594025    0.85264978    -0.15020000
opls_965-113    F    0.94995009    0.53703012    0.68281057    -0.16020000
opls_965-114    F    0.97061020    0.52028014    0.12868943    -0.15020000
opls_965-115    F    0.69757996    0.79364996    0.82077093    -0.17340000
opls_965-116    F    0.72079013    0.78329000    0.36824009    -0.16020000
opls_965-117    F    0.77379011    0.89709018    0.82409912    -0.22230000
opls_965-118    F    0.80327017    0.88859029    0.38348018    -0.22030000
opls_965-119    F    0.12465010    0.84654017    0.42688106    -0.22460000
opls_146-120    H    0.35986998    0.10337007    0.79964097    0.12190000
opls_146-121    H    0.28580999    0.21496996    0.52892070    0.12370000
opls_185-122    H    0.35588991    0.29785003    0.46690969    0.05970000
opls_185-123    H    0.33259008    0.26613999    0.11200000    0.06230000
opls_140-124    H    0.42047020    0.32135012    0.90061894    0.12530000
opls_140-125    H    0.44569990    0.35027998    0.25333921    0.12530000
opls_185-126    H    0.27418002    0.00136982    0.94614097    0.06230000
opls_185-127    H    0.27664979    0.02845988    0.58718943    0.06200000
opls_140-128    H    0.18290015    0.99828022    0.60611013    0.09560000
opls_140-129    H    0.17774001    0.97290019    0.97062996    0.11790000
opls_910-130    H    0.45923012    0.26915008    0.65527093    0.27850000
opls_144-131    H    0.54849999    0.33468003    0.60666960    0.11710000
opls_146-132    H    0.59900004    0.23960993    0.55696916    0.12300000
opls_910-133    H    0.21218005    0.09004015    0.21874009    0.26980000
opls_144-134    H    0.12685004    0.01800990    0.35057048    0.11870000
opls_146-135    H    0.05978004    0.09577001    0.28353084    0.12680000
opls_146-136    H    0.89663012    0.25650021    0.79964097    0.12190000
opls_146-137    H    0.78502990    0.07084009    0.52892070    0.12370000
opls_185-138    H    0.70215002    0.05804017    0.46690969    0.05970000
opls_185-139    H    0.73386019    0.06645004    0.11200000    0.06230000
opls_140-140    H    0.67865007    0.09911993    0.90061894    0.12540000
opls_140-141    H    0.64972015    0.09542005    0.25333921    0.12530000
opls_185-142    H    0.99863021    0.27281021    0.94614097    0.06230000
opls_185-143    H    0.97154021    0.24819011    0.58718943    0.06200000
opls_140-144    H    0.00172005    0.18462000    0.60611013    0.09560000
opls_140-145    H    0.02710002    0.20483992    0.97062996    0.11790000
opls_910-146    H    0.73085008    0.19008017    0.65527093    0.27850000
opls_144-147    H    0.66532002    0.21381993    0.60666960    0.11710000
opls_146-148    H    0.76038998    0.35939016    0.55696916    0.12300000
opls_910-149    H    0.90995992    0.12213989    0.21874009    0.26980000
opls_144-150    H    0.98199002    0.10883999    0.35057048    0.11870000
opls_146-151    H    0.90423021    0.96401021    0.28353084    0.12680000
opls_146-152    H    0.74350009    0.64013012    0.79964097    0.12190000
opls_146-153    H    0.92916012    0.71418996    0.52892070    0.12370000
opls_185-154    H    0.94196026    0.64411019    0.46690969    0.05970000
opls_185-155    H    0.93355007    0.66740997    0.11200000    0.06230000
opls_140-156    H    0.90088007    0.57952996    0.90061894    0.12530000
opls_140-157    H    0.90457995    0.55429996    0.25333921    0.12530000
opls_185-158    H    0.72719011    0.72581997    0.94614097    0.06230000
opls_185-159    H    0.75181000    0.72335001    0.58718943    0.06200000
opls_140-160    H    0.81537999    0.81710017    0.60611013    0.09570000
opls_140-161    H    0.79516017    0.82226027    0.97062996    0.11790000
opls_910-162    H    0.80992000    0.54077013    0.65527093    0.27850000
opls_144-163    H    0.78617999    0.45150004    0.60666960    0.11710000
opls_146-164    H    0.64060998    0.40099991    0.55696916    0.12300000
opls_910-165    H    0.87786003    0.78781995    0.21874009    0.26980000
opls_144-166    H    0.89115994    0.87315011    0.35057048    0.11870000
opls_146-167    H    0.03598994    0.94022018    0.28353084    0.12680000
