#======================================================================
# Crystal Data Generated By AuToFF
#----------------------------------------------------------------------

data_AuToFF_phase_1

_cell_length_a                         22.5660
_cell_length_b                         22.5660
_cell_length_c                         3.4000
_cell_angle_alpha                      90.00
_cell_angle_beta                       90.00
_cell_angle_gamma                      120.00
_symmetry_space_group_name_H-M_alt     'P 1'
_symmetry_space_group_IT_number        1

loop_
_space_group_symop_operation_xyz
   'x, y, z'

loop_
   _atom_site_label
   _atom_site_type_symbol
   _atom_site_fract_x
   _atom_site_fract_y
   _atom_site_fract_z
   _atom_site_charge
opls_145-0    C    0.66202970    0.39513978    0.50000000    -0.23660000
opls_280-1    C    0.59864987    0.32728999    0.50000000    0.29450000
opls_142-2    C    0.66080020    0.45440018    0.50000000    0.11380000
opls_916-3    C    0.58131986    0.49796011    0.50000000    0.17700000
opls_145-4    C    0.62988997    0.56744989    0.50000000    -0.17100000
opls_145-5    C    0.60938001    0.61618003    0.50000000    -0.09370000
opls_145-6    C    0.54086003    0.59582003    0.50000000    -0.13420000
opls_700-7    C    0.49002989    0.52510985    0.50000000    -0.00040000
opls_145-8    C    0.60485998    0.26689004    0.50000000    -0.22770000
opls_280-9    C    0.67271017    0.27136024    0.50000000    0.29450000
opls_142-10    C    0.54560982    0.20640975    0.50000000    0.11380000
opls_916-11    C    0.50203978    0.08335990    0.50000000    0.17700000
opls_145-12    C    0.43254993    0.06244010    0.50000000    -0.17100000
opls_145-13    C    0.38382017    0.99320003    0.50000000    -0.09370000
opls_145-14    C    0.40417998    0.94503992    0.50000000    -0.13420000
opls_700-15    C    0.47489018    0.96491995    0.50000000    -0.00040000
opls_145-16    C    0.73310988    0.33797018    0.50000000    -0.22770000
opls_280-17    C    0.72863996    0.40134976    0.50000000    0.29450000
opls_142-18    C    0.79358997    0.33919979    0.50000000    0.11380000
opls_916-19    C    0.91663992    0.41867999    0.50000000    0.17700000
opls_145-20    C    0.93756010    0.37011001    0.50000000    -0.17100000
opls_145-21    C    0.00679982    0.39061994    0.50000000    -0.09370000
opls_145-22    C    0.05495998    0.45914977    0.50000000    -0.13420000
opls_700-23    C    0.03507993    0.50997020    0.50000000    -0.00030000
opls_145-24    C    0.33797030    0.60486022    0.50000000    -0.22770000
opls_280-25    C    0.40135013    0.67271001    0.50000000    0.29450000
opls_142-26    C    0.33920005    0.54561006    0.50000000    0.11380000
opls_916-27    C    0.41868014    0.50203989    0.50000000    0.17700000
opls_145-28    C    0.37011003    0.43255011    0.50000000    -0.17100000
opls_145-29    C    0.39061999    0.38381997    0.50000000    -0.09370000
opls_145-30    C    0.45913997    0.40417997    0.50000000    -0.13420000
opls_700-31    C    0.50997011    0.47489015    0.50000000    -0.00040000
opls_145-32    C    0.39514002    0.73310996    0.50000000    -0.22770000
opls_280-33    C    0.32728983    0.72863976    0.50000000    0.29450000
opls_142-34    C    0.45438992    0.79358974    0.50000000    0.11380000
opls_916-35    C    0.49796022    0.91664010    0.50000000    0.17700000
opls_145-36    C    0.56745007    0.93755990    0.50000000    -0.17100000
opls_145-37    C    0.61617983    0.00679997    0.50000000    -0.09370000
opls_145-38    C    0.59582002    0.05496008    0.50000000    -0.13420000
opls_700-39    C    0.52510982    0.03508005    0.50000000    -0.00040000
opls_145-40    C    0.26689012    0.66202982    0.50000000    -0.22770000
opls_280-41    C    0.27135978    0.59864973    0.50000000    0.29450000
opls_142-42    C    0.20641003    0.66080021    0.50000000    0.11380000
opls_916-43    C    0.08336008    0.58132001    0.50000000    0.17700000
opls_145-44    C    0.06243990    0.62988999    0.50000000    -0.17100000
opls_145-45    C    0.99320018    0.60938006    0.50000000    -0.09370000
opls_145-46    C    0.94504001    0.54085995    0.50000000    -0.13420000
opls_700-47    C    0.96492007    0.49002980    0.50000000    -0.00040000
opls_238-48    N    0.59849975    0.44698975    0.50000000    -0.24330000
opls_238-49    N    0.55301019    0.15151005    0.50000000    -0.24330000
opls_238-50    N    0.84849006    0.40150020    0.50000000    -0.24330000
opls_238-51    N    0.40149999    0.55300974    0.50000000    -0.24330000
opls_238-52    N    0.44698981    0.84848995    0.50000000    -0.24350000
opls_238-53    N    0.15150994    0.59849980    0.50000000    -0.24330000
opls_281-54    O    0.54042000    0.31780002    0.50000000    -0.40220000
opls_281-55    O    0.68219977    0.22261987    0.50000000    -0.40230000
opls_281-56    O    0.77738023    0.45958011    0.50000000    -0.40220000
opls_281-57    O    0.45958000    0.68219998    0.50000000    -0.40220000
opls_281-58    O    0.31780023    0.77738013    0.50000000    -0.40220000
opls_281-59    O    0.22261977    0.54041989    0.50000000    -0.40230000
opls_144-60    H    0.70570996    0.50548977    0.50000000    0.09980000
opls_146-61    H    0.52803984    0.63663981    0.50000000    0.09250000
opls_146-62    H    0.35202973    0.32902977    0.50000000    0.11440000
opls_146-63    H    0.31506003    0.41510986    0.50000000    0.10890000
opls_910-64    H    0.55728989    0.39997994    0.50000000    0.28420000
opls_144-65    H    0.49451010    0.20022024    0.50000000    0.09290000
opls_146-66    H    0.36336021    0.89140002    0.50000000    0.09250000
opls_146-67    H    0.67096993    0.02299986    0.50000000    0.11440000
opls_146-68    H    0.58488992    0.89995001    0.50000000    0.10890000
opls_910-69    H    0.60001995    0.15731988    0.50000000    0.28420000
opls_144-70    H    0.79977994    0.29429000    0.50000000    0.09290000
opls_146-71    H    0.10859995    0.47196016    0.50000000    0.06060000
opls_146-72    H    0.97700008    0.64796986    0.50000000    0.11440000
opls_146-73    H    0.10005005    0.68494013    0.50000000    0.10890000
opls_910-74    H    0.84267995    0.44270990    0.50000000    0.28420000
opls_144-75    H    0.29429004    0.49451023    0.50000000    0.09290000
opls_146-76    H    0.47196016    0.36336019    0.50000000    0.09250000
opls_146-77    H    0.64797027    0.67097023    0.50000000    0.11440000
opls_146-78    H    0.68493997    0.58489014    0.50000000    0.10890000
opls_910-79    H    0.44271011    0.60002006    0.50000000    0.28420000
opls_144-80    H    0.50548990    0.79977976    0.50000000    0.09290000
opls_146-81    H    0.63663979    0.10859998    0.50000000    0.09250000
opls_146-82    H    0.32903007    0.97700014    0.50000000    0.11440000
opls_146-83    H    0.41511008    0.10004999    0.50000000    0.10890000
opls_910-84    H    0.39998005    0.84268012    0.50000000    0.28420000
opls_144-85    H    0.20022006    0.70571000    0.50000000    0.09290000
opls_146-86    H    0.89140005    0.52803984    0.50000000    0.09250000
opls_146-87    H    0.02299992    0.35203014    0.50000000    0.11440000
opls_146-88    H    0.89994995    0.31505987    0.50000000    0.10890000
opls_910-89    H    0.15732005    0.55729010    0.50000000    0.28420000
