#======================================================================
# Crystal Data Generated By AuToFF
#----------------------------------------------------------------------

data_AuToFF_phase_1

_cell_length_a                         18.5000
_cell_length_b                         18.5000
_cell_length_c                         3.7000
_cell_angle_alpha                      90.00
_cell_angle_beta                       90.00
_cell_angle_gamma                      120.00
_symmetry_space_group_name_H-M_alt     'P 1'
_symmetry_space_group_IT_number        1

loop_
_space_group_symop_operation_xyz
   'x, y, z'

loop_
   _atom_site_label
   _atom_site_type_symbol
   _atom_site_fract_x
   _atom_site_fract_y
   _atom_site_fract_z
   _atom_site_charge
opls_700-0    C    0.17758964    0.08023983    0.39704054    0.07050000
opls_145-1    C    0.22421993    0.04135014    0.28907027    -0.11940000
opls_145-2    C    0.30874021    0.07973987    0.34580000    -0.14880000
opls_145-3    C    0.35269014    0.15855973    0.50911081    0.21710000
opls_145-4    C    0.30766008    0.19736017    0.62002973    -0.15430000
opls_145-5    C    0.22308015    0.16000030    0.56771892    -0.11940000
opls_145-6    C    0.63661008    0.38806988    0.61921892    -0.15580000
opls_700-7    C    0.57962013    0.30256025    0.61715135    0.04980000
opls_142-8    C    0.49119963    0.27401980    0.60740000    0.08700000
opls_145-9    C    0.03906003    0.95264979    0.33405946    -0.13840000
opls_700-10    C    0.08875965    0.04017983    0.34455946    0.08170000
opls_700-11    C    0.91975986    0.09734999    0.39704054    0.07050000
opls_145-12    C    0.95865025    0.18287024    0.28907027    -0.11940000
opls_145-13    C    0.92026011    0.22900021    0.34580000    -0.14880000
opls_145-14    C    0.84144020    0.19413013    0.50911081    0.21710000
opls_145-15    C    0.80263979    0.11030012    0.62002973    -0.15430000
opls_145-16    C    0.83999986    0.06307973    0.56771892    -0.11940000
opls_145-17    C    0.61193012    0.24854024    0.61921892    -0.15580000
opls_700-18    C    0.69744032    0.27706009    0.61715135    0.04980000
opls_142-19    C    0.72598018    0.21717982    0.60740000    0.08700000
opls_145-20    C    0.04735001    0.08641030    0.33405946    -0.13840000
opls_700-21    C    0.95981964    0.04857981    0.34455946    0.08170000
opls_700-22    C    0.90264995    0.82241018    0.39704054    0.07050000
opls_145-23    C    0.81713012    0.77578025    0.28907027    -0.11930000
opls_145-24    C    0.77100023    0.69125992    0.34580000    -0.14870000
opls_145-25    C    0.80587021    0.64731014    0.50911081    0.21710000
opls_145-26    C    0.88970013    0.69233972    0.62002973    -0.15430000
opls_145-27    C    0.93691999    0.77691997    0.56771892    -0.11940000
opls_145-28    C    0.75145980    0.36338988    0.61921892    -0.15560000
opls_700-29    C    0.72294041    0.42038028    0.61715135    0.04980000
opls_142-30    C    0.78281988    0.50879975    0.60740000    0.08700000
opls_145-31    C    0.91358996    0.96093991    0.33405946    -0.13840000
opls_700-32    C    0.95141987    0.91123973    0.34455946    0.08180000
opls_750-33    N    0.43916007    0.19552014    0.55524054    -0.27310000
opls_750-34    N    0.80447997    0.24363994    0.55524054    -0.27320000
opls_750-35    N    0.75635996    0.56083992    0.55524054    -0.27310000
opls_146-36    H    0.19311997    0.98075021    0.15022973    0.06570000
opls_146-37    H    0.34271972    0.04845997    0.25448919    0.11540000
opls_146-38    H    0.33950985    0.25825970    0.75584054    0.09430000
opls_146-39    H    0.19045973    0.19189999    0.66831892    0.07780000
opls_146-40    H    0.61248001    0.43148974    0.61645946    0.08570000
opls_144-41    H    0.47237998    0.32167023    0.62701892    0.07000000
opls_146-42    H    0.06993984    0.91526995    0.34921892    0.09400000
opls_146-43    H    0.01924988    0.21237003    0.15022973    0.06570000
opls_146-44    H    0.95153980    0.29426014    0.25448919    0.11540000
opls_146-45    H    0.74174000    0.08124972    0.75584054    0.09430000
opls_146-46    H    0.80810003    0.99856006    0.66831892    0.07780000
opls_146-47    H    0.56851026    0.18099026    0.61645946    0.08570000
opls_144-48    H    0.67833027    0.15071027    0.62701892    0.07010000
opls_146-49    H    0.08473011    0.15466995    0.34921892    0.09400000
opls_146-50    H    0.78763015    0.80687977    0.15022973    0.06570000
opls_146-51    H    0.70573994    0.65727989    0.25448919    0.11540000
opls_146-52    H    0.91874984    0.66048996    0.75584054    0.09430000
opls_146-53    H    0.00144024    0.80953995    0.66831892    0.07780000
opls_146-54    H    0.81901027    0.38752000    0.61645946    0.08580000
opls_144-55    H    0.84929006    0.52762012    0.62701892    0.07000000
opls_146-56    H    0.84533005    0.93006010    0.34921892    0.09400000
