#======================================================================
# Crystal Data Generated By AuToFF
#----------------------------------------------------------------------

data_AuToFF_phase_1

_cell_length_a                         44.9115
_cell_length_b                         44.1431
_cell_length_c                         3.9779
_cell_angle_alpha                      83.40
_cell_angle_beta                       96.99
_cell_angle_gamma                      120.21
_symmetry_space_group_name_H-M_alt     'P 1'
_symmetry_space_group_IT_number        1

loop_
_space_group_symop_operation_xyz
   'x, y, z'

loop_
   _atom_site_label
   _atom_site_type_symbol
   _atom_site_fract_x
   _atom_site_fract_y
   _atom_site_fract_z
   _atom_site_charge
opls_146-0    H    0.31656999    0.20662996    0.47717837    0.10880000
opls_146-1    H    0.89007991    0.68461998    0.50880839    0.04180000
opls_146-2    H    0.77529991    0.13875000    0.34636955    0.10610000
opls_146-3    H    0.86094989    0.63624990    0.92268865    0.10880000
opls_146-4    H    0.79471993    0.10968012    0.75380910    0.04220000
opls_146-5    H    0.36481986    0.22477000    0.87958818    0.04210000
opls_526-6    H    0.65471989    0.24345990    0.16313925    0.12310000
opls_146-7    H    0.68500993    0.21077996    0.28044999    0.09110000
opls_146-8    H    0.78244986    0.30666002    0.33053931    0.12180000
opls_526-9    H    0.75273998    0.33936007    0.21999919    0.24860000
opls_144-10    H    0.47243998    0.19713003    0.63265881    0.03140000
opls_146-11    H    0.75047999    0.17695000    0.33099864    0.10880000
opls_146-12    H    0.87207006    0.22379012    0.75427858    0.09700000
opls_146-13    H    0.84737001    0.26210005    0.72797014    0.10550000
opls_146-14    H    0.81939006    0.07135013    0.72656932    0.09110000
opls_146-15    H    0.91629984    0.15649988    0.33001908    0.04370000
opls_146-16    H    0.89150001    0.19473010    0.34631880    0.09110000
opls_144-17    H    0.86749991    0.06066002    0.59348925    0.12140000
opls_146-18    H    0.88425001    0.02675013    0.32847869    0.09460000
opls_526-19    H    0.91393005    0.99404007    0.21742087    0.09340000
opls_526-20    H    0.01193996    0.08991012    0.15794963    0.12190000
opls_146-21    H    0.98169000    0.12261996    0.27583897    0.09830000
opls_526-22    H    0.75600995    0.41020999    0.05039893    0.25040000
opls_146-23    H    0.78877998    0.47394005    0.98827832    0.11910000
opls_146-24    H    0.69321004    0.47414007    0.80599965    0.25040000
opls_526-25    H    0.66070983    0.41127994    0.85947936    0.12070000
opls_144-26    H    0.79923992    0.27277006    0.59557017    0.06540000
opls_146-27    H    0.82280999    0.57312010    0.92282823    0.24970000
opls_146-28    H    0.77654999    0.64868005    0.50788974    0.24960000
opls_146-29    H    0.73837982    0.58561994    0.51718030    0.09830000
opls_146-30    H    0.92826998    0.74767004    0.51862933    0.04450000
opls_146-31    H    0.84379993    0.76019999    0.92273941    0.04160000
opls_146-32    H    0.80563979    0.69705997    0.92211006    0.04330000
opls_144-33    H    0.93841985    0.80657990    0.61599874    0.02480000
opls_146-34    H    0.97342983    0.85915007    0.80817955    0.10660000
opls_526-35    H    0.00592996    0.92201002    0.86089794    0.06340000
opls_526-36    H    0.91060996    0.92316010    0.04692988    0.11530000
opls_146-37    H    0.87782997    0.85942010    0.98555789    0.11360000
opls_526-38    H    0.59088987    0.34381006    0.86670930    0.24860000
opls_146-39    H    0.52745990    0.31343012    0.79417900    0.24980000
opls_146-40    H    0.52328988    0.21519996    0.92122947    0.24460000
opls_526-41    H    0.58637974    0.24498988    0.99014861    0.24290000
opls_144-42    H    0.72826987    0.52669994    0.61388990    0.10440000
opls_146-43    H    0.42756992    0.24819006    0.88875947    0.07050000
opls_146-44    H    0.35014981    0.12660989    0.47775951    0.09650000
opls_146-45    H    0.41292995    0.14987995    0.50012942    0.04330000
opls_146-46    H    0.25379988    0.18338990    0.49779981    0.24960000
opls_146-47    H    0.23900985    0.08501012    0.88613801    0.10880000
opls_146-48    H    0.30176002    0.10840004    0.87867968    0.24970000
opls_144-49    H    0.19425994    0.13614991    0.62917961    0.12220000
opls_146-50    H    0.14334991    0.11809998    0.91611852    0.11880000
opls_526-51    H    0.08027002    0.08833008    0.98523814    0.05100000
opls_526-52    H    0.07572994    0.98948006    0.86460808    0.11880000
opls_146-53    H    0.13915998    0.01983000    0.79190014    0.12330000
opls_531-54    C    0.68562998    0.36729000    0.99388919    0.35320000
opls_700-55    C    0.59365993    0.29674995    0.93212894    0.00970000
opls_523-56    C    0.68258009    0.25753012    0.20323000    -0.18870000
opls_145-57    C    0.69967998    0.23884995    0.27014942    -0.19570000
opls_145-58    C    0.73560993    0.25602008    0.32285005    0.21100000
opls_145-59    C    0.75455980    0.29251987    0.30286051    -0.19480000
opls_523-60    C    0.73755000    0.31129007    0.23543862    -0.16770000
opls_142-61    C    0.46272986    0.21424999    0.71030006    0.01350000
opls_700-62    C    0.79708996    0.22240992    0.52773971    0.05430000
opls_145-63    C    0.77696999    0.18728004    0.42606888    -0.12910000
opls_145-64    C    0.79111996    0.16542000    0.43752918    -0.12860000
opls_700-65    C    0.82570991    0.17823004    0.55118816    0.06650000
opls_145-66    C    0.84563996    0.21333006    0.65738880    -0.12950000
opls_145-67    C    0.83146992    0.23517988    0.64531945    -0.11530000
opls_700-68    C    0.84109983    0.15524999    0.55101813    0.06280000
opls_145-69    C    0.82115995    0.12014013    0.65689902    -0.13360000
opls_145-70    C    0.83530993    0.09828006    0.64428914    -0.09140000
opls_700-71    C    0.86967989    0.11104011    0.52649877    0.05880000
opls_145-72    C    0.88981994    0.14618000    0.42524920    -0.13310000
opls_145-73    C    0.87568001    0.16805993    0.43726019    -0.09400000
opls_142-74    C    0.88373991    0.08723997    0.50210884    0.01590000
opls_145-75    C    0.93109992    0.07739000    0.31958909    0.20480000
opls_145-76    C    0.91212999    0.04089007    0.30006903    -0.16400000
opls_523-77    C    0.92912000    0.02210008    0.23232992    -0.09680000
opls_700-78    C    0.96529995    0.03934989    0.17946942    -0.00990000
opls_523-79    C    0.98408004    0.07584999    0.19867988    -0.09370000
opls_145-80    C    0.96700980    0.09454990    0.26591906    -0.16370000
opls_531-81    C    0.98324998    0.01945010    0.09908998    0.33520000
opls_531-82    C    0.63192978    0.31509000    0.98082760    0.36470000
opls_700-83    C    0.70135995    0.29403000    0.18334957    0.01420000
opls_523-84    C    0.74212978    0.42394988    0.99346793    -0.16770000
opls_145-85    C    0.76083983    0.46015000    0.95811001    -0.19610000
opls_145-86    C    0.74385986    0.47880998    0.88378809    0.21680000
opls_145-87    C    0.70745979    0.46070988    0.85206925    -0.16990000
opls_523-88    C    0.68868998    0.42454992    0.88661002    -0.18870000
opls_142-89    C    0.78301006    0.24620005    0.50410855    0.07090000
opls_145-90    C    0.77774993    0.57466987    0.72019967    0.06100000
opls_145-91    C    0.81260994    0.58948008    0.83061798    -0.18850000
opls_145-92    C    0.83440980    0.62553002    0.82794831    -0.18840000
opls_145-93    C    0.82177001    0.64749010    0.71522829    0.09630000
opls_145-94    C    0.78685986    0.63252995    0.60387864    -0.18860000
opls_145-95    C    0.76510003    0.59649007    0.60633006    -0.18860000
opls_700-96    C    0.84483984    0.68582002    0.71528920    0.06150000
opls_145-97    C    0.87976003    0.70077005    0.60449022    -0.09710000
opls_145-98    C    0.90152999    0.73680999    0.60724872    -0.09610000
opls_700-99    C    0.88887994    0.75863001    0.72083917    0.07390000
opls_145-100    C    0.85399985    0.74382992    0.83066874    -0.09610000
opls_145-101    C    0.83218984    0.70778000    0.82770977    -0.09710000
opls_142-102    C    0.91247989    0.79659003    0.72563798    0.02900000
opls_145-103    C    0.92275986    0.85449987    0.88352924    0.20400000
opls_145-104    C    0.95916993    0.87258994    0.85302850    -0.13560000
opls_523-105    C    0.97793999    0.90875005    0.88712772    -0.09400000
opls_700-106    C    0.96085999    0.92763010    0.95601894    -0.00960000
opls_523-107    C    0.92449981    0.90938992    0.99131849    -0.09400000
opls_145-108    C    0.90576989    0.87318997    0.95636915    -0.16390000
opls_531-109    C    0.98100988    0.96605013    0.99193769    0.33500000
opls_531-110    C    0.68340006    0.31391001    0.10267069    0.36410000
opls_700-111    C    0.70576984    0.40569989    0.95712792    0.00800000
opls_523-112    C    0.57644994    0.31569998    0.87636021    -0.16750000
opls_145-113    C    0.54040989    0.29856005    0.83485850    -0.19480000
opls_145-114    C    0.52084988    0.26233989    0.84263912    0.21880000
opls_145-115    C    0.53778988    0.24317010    0.90060804    -0.16990000
opls_523-116    C    0.57388983    0.26025991    0.94409932    -0.16930000
opls_142-117    C    0.75416990    0.53671010    0.72466858    0.11640000
opls_700-118    C    0.42494986    0.20076989    0.69524890    0.04850000
opls_145-119    C    0.41082992    0.22167008    0.79689943    -0.09640000
opls_145-120    C    0.37496004    0.20833002    0.78888026    -0.09610000
opls_700-121    C    0.35242999    0.17380005    0.67768033    0.06610000
opls_145-122    C    0.36671004    0.15303005    0.57288812    -0.09570000
opls_145-123    C    0.40258998    0.16637010    0.58272936    -0.09660000
opls_145-124    C    0.31421990    0.15939993    0.67701799    0.07130000
opls_145-125    C    0.29998996    0.18018997    0.57175884    -0.16690000
opls_145-126    C    0.26409983    0.16686992    0.58063828    -0.16930000
opls_145-127    C    0.24170980    0.13245990    0.69264013    0.05000000
opls_145-128    C    0.25578991    0.11153010    0.79462817    -0.16800000
opls_145-129    C    0.29165985    0.12486011    0.78756826    -0.16930000
opls_142-130    C    0.20392990    0.11900002    0.70699850    0.06070000
opls_145-131    C    0.14577998    0.07092992    0.83896959    0.19620000
opls_145-132    C    0.12884988    0.09011994    0.89614928    -0.16390000
opls_523-133    C    0.09274983    0.07306008    0.93975983    -0.11410000
opls_700-134    C    0.07296998    0.03655999    0.92868019    -0.00810000
opls_523-135    C    0.09016984    0.01759008    0.87357888    -0.09120000
opls_145-136    C    0.12620985    0.03470997    0.83195028    -0.17110000
opls_531-137    C    0.03470994    0.01824011    0.97765800    0.33500000
opls_520-138    N    0.65070989    0.35012006    0.95078872    -0.41010000
opls_750-139    N    0.48384983    0.24625997    0.80697921    -0.32510000
opls_750-140    N    0.91489002    0.09804998    0.37431989    -0.24730000
opls_520-141    N    0.96481999    0.98435014    0.06720872    -0.42100000
opls_520-142    N    0.64846004    0.29713012    0.05661886    -0.31390000
opls_750-143    N    0.75183986    0.23536993    0.37690075    -0.29700000
opls_750-144    N    0.90217991    0.81733993    0.85428975    -0.22310000
opls_520-145    N    0.01591981    0.98319998    0.94859868    -0.45980000
opls_520-146    N    0.70181997    0.34901006    0.06988093    -0.39240000
opls_750-147    N    0.76443989    0.51598003    0.85453844    -0.26520000
opls_750-148    N    0.18277991    0.08699007    0.80359898    -0.32840000
opls_520-149    N    0.01818990    0.03622003    0.05276915    -0.39910000
