#======================================================================
# Crystal Data Generated By AuToFF
#----------------------------------------------------------------------

data_AuToFF_phase_1

_cell_length_a                         37.6199
_cell_length_b                         37.6063
_cell_length_c                         3.5100
_cell_angle_alpha                      90.01
_cell_angle_beta                       89.94
_cell_angle_gamma                      120.05
_symmetry_space_group_name_H-M_alt     'P 1'
_symmetry_space_group_IT_number        1

loop_
_space_group_symop_operation_xyz
   'x, y, z'

loop_
   _atom_site_label
   _atom_site_type_symbol
   _atom_site_fract_x
   _atom_site_fract_y
   _atom_site_fract_z
   _atom_site_charge
opls_700-0    C    0.47972980    0.51374005    0.98001994    -0.03640000
opls_166-1    C    0.46373978    0.47097997    0.99570940    0.21160000
opls_145-2    C    0.48859001    0.45518997    0.11701994    -0.24280000
opls_700-3    C    0.53015999    0.48162989    0.20184046    -0.04870000
opls_166-4    C    0.54792983    0.52422995    0.12792023    0.23520000
opls_145-5    C    0.52195975    0.54002982    0.04384046    -0.25000000
opls_181-6    C    0.62014987    0.54421017    0.99445869    -0.20860000
opls_181-7    C    0.39341996    0.41809007    0.08105128    -0.19610000
opls_142-8    C    0.55568989    0.46581006    0.36200000    0.07110000
opls_142-9    C    0.45157982    0.52997005    0.90339031    0.02810000
opls_145-10    C    0.43648996    0.58640008    0.94113960    0.18330000
opls_145-11    C    0.57238000    0.41099994    0.40788889    0.19240000
opls_145-12    C    0.55545003    0.36954004    0.50490028    -0.16530000
opls_145-13    C    0.57978982    0.35098989    0.51239031    -0.12970000
opls_700-14    C    0.62160004    0.37304000    0.40662963    0.06260000
opls_145-15    C    0.63863988    0.41509985    0.31896866    -0.12870000
opls_145-16    C    0.61457998    0.43389995    0.32451852    -0.16670000
opls_145-17    C    0.45217990    0.62687996    0.06529915    -0.16470000
opls_145-18    C    0.42810988    0.64572996    0.05707123    -0.12990000
opls_700-19    C    0.38749981    0.62471994    0.91698006    0.06260000
opls_145-20    C    0.37209986    0.58416011    0.78592877    -0.12970000
opls_145-21    C    0.39601996    0.56517999    0.79968091    -0.17410000
opls_700-22    C    0.64642008    0.35182008    0.36476068    0.06720000
opls_700-23    C    0.36169978    0.64503998    0.89574074    0.06290000
opls_145-24    C    0.68925004    0.37358015    0.39404843    -0.17200000
opls_145-25    C    0.31331982    0.68196991    0.79182051    -0.16920000
opls_700-26    C    0.47156989    0.95496990    0.91601994    -0.03240000
opls_166-27    C    0.51120991    0.98512999    0.79925071    0.21450000
opls_145-28    C    0.52420013    0.02698024    0.84762963    -0.24130000
opls_700-29    C    0.49784985    0.04052998    0.98970085    -0.03370000
opls_166-30    C    0.45604994    0.01077990    0.05235043    0.27440000
opls_145-31    C    0.44373993    0.96696991    0.03715100    -0.22020000
opls_181-32    C    0.42211985    0.04990013    0.92898006    -0.19610000
opls_181-33    C    0.56186989    0.96425986    0.76041026    -0.19080000
opls_142-34    C    0.51437988    0.08496998    0.07319943    0.07440000
opls_142-35    C    0.45974985    0.91126005    0.92945014    0.07090000
opls_145-36    C    0.40765986    0.83945996    0.86035897    0.20030000
opls_145-37    C    0.57447996    0.15495010    0.07068091    0.19810000
opls_145-38    C    0.61479992    0.17681013    0.94380912    -0.16150000
opls_145-39    C    0.63749999    0.21937014    0.97852991    -0.19000000
opls_700-40    C    0.62260016    0.24216012    0.16380912    0.06360000
opls_145-41    C    0.58132000    0.21948987    0.29521937    -0.16320000
opls_145-42    C    0.55727001    0.17672990    0.24074074    -0.18050000
opls_145-43    C    0.36699995    0.81296014    0.96588889    -0.15090000
opls_145-44    C    0.35091982    0.77054004    0.96535897    -0.12920000
opls_700-45    C    0.37457999    0.75313999    0.84043875    0.06180000
opls_145-46    C    0.41561987    0.78012992    0.73047009    -0.12650000
opls_145-47    C    0.43214000    0.82286017    0.74419088    -0.17550000
opls_700-48    C    0.64887000    0.28856015    0.22394872    -0.01840000
opls_700-49    C    0.35604007    0.70723015    0.83063818    0.06920000
opls_145-50    C    0.62723997    0.31004010    0.27094017    -0.17480000
opls_145-51    C    0.31836999    0.62125018    0.89829915    -0.16960000
opls_700-52    C    0.04586002    0.52896010    0.86214815    -0.04470000
opls_166-53    C    0.01819994    0.54318996    0.80447863    0.26830000
opls_145-54    C    0.97381992    0.51579011    0.88021937    -0.20560000
opls_700-55    C    0.95813989    0.47425021    0.97194017    -0.02970000
opls_166-56    C    0.98569000    0.45877017    0.97874074    0.27290000
opls_145-57    C    0.03031991    0.48759012    0.95265812    -0.21710000
opls_181-58    C    0.94175991    0.38744015    0.80307977    -0.19580000
opls_181-59    C    0.03648983    0.61331999    0.84023932    -0.19650000
opls_142-60    C    0.91380999    0.44753001    0.06223932    0.07430000
opls_142-61    C    0.09081001    0.55756004    0.83774929    0.07200000
opls_145-62    C    0.16061992    0.56853004    0.83468091    0.19520000
opls_145-63    C    0.84524002    0.43673001    0.16645014    0.19280000
opls_145-64    C    0.81775995    0.44961008    0.05105983    -0.18020000
opls_145-65    C    0.77515002    0.42358991    0.09582906    -0.12360000
opls_700-66    C    0.75905990    0.38441994    0.26602849    0.06520000
opls_145-67    C    0.78739994    0.37474999    0.42131909    -0.16760000
opls_145-68    C    0.82946986    0.39923993    0.36029060    -0.16120000
opls_145-69    C    0.18374994    0.55052015    0.72115954    -0.16570000
opls_145-70    C    0.22677986    0.57314005    0.72206838    -0.12980000
opls_700-71    C    0.24778979    0.61430006    0.84602849    0.06890000
opls_145-72    C    0.22422997    0.63175999    0.97162963    -0.12830000
opls_145-73    C    0.18136000    0.60943002    0.96300000    -0.16490000
opls_700-74    C    0.71331003    0.35574002    0.30309972    -0.03350000
opls_700-75    C    0.29379995    0.63931004    0.84353846    0.06800000
opls_166-76    C    0.69344997    0.31237994    0.22503989    0.18340000
opls_145-77    C    0.38001993    0.68825990    0.87147863    -0.16900000
opls_182-78    C    0.72809013    0.27197011    0.29127920    -0.04370000
opls_914-79    C    0.75554006    0.25719995    0.09956125    0.11050000
opls_136-80    C    0.79886996    0.29178012    0.98712821    -0.18760000
opls_136-81    C    0.82762000    0.27545008    0.06982051    -0.17240000
opls_907-82    C    0.79981991    0.23136991    0.19292023    -0.02290000
opls_179-83    O    0.59033003    0.55247010    0.17243875    -0.20280000
opls_179-84    O    0.42568005    0.44471011    0.82935897    -0.18440000
opls_179-85    O    0.42548992    0.02004990    0.15386040    -0.20630000
opls_179-86    O    0.53493986    0.97453003    0.56825071    -0.17930000
opls_179-87    O    0.97362985    0.41730990    0.03984900    -0.20450000
opls_179-88    O    0.03093006    0.57994007    0.60868091    -0.16840000
opls_179-89    O    0.71762011    0.29707005    0.06176068    -0.24410000
opls_750-90    N    0.46231984    0.56812007    0.97351852    -0.32780000
opls_750-91    N    0.54529980    0.42718993    0.34292023    -0.32910000
opls_750-92    N    0.42234979    0.88281011    0.85582051    -0.34700000
opls_750-93    N    0.55290008    0.11118998    0.01400000    -0.34260000
opls_750-94    N    0.11646996    0.54385992    0.83408832    -0.33130000
opls_750-95    N    0.88843004    0.46161000    0.07956125    -0.32640000
opls_901-96    N    0.76198996    0.22847014    0.33111966    -0.38240000
opls_146-97    H    0.47552982    0.42223995    0.13829915    0.11780000
opls_146-98    H    0.53516991    0.57294008    0.01700000    0.11910000
opls_185-99    H    0.62892974    0.56009995    0.72247863    0.11140000
opls_185-100    H    0.61154987    0.51058019    0.97253846    0.05770000
opls_185-101    H    0.64928985    0.55961012    0.15623932    0.07340000
opls_185-102    H    0.40248008    0.39897002    0.25207123    0.07040000
opls_185-103    H    0.36585998    0.39743004    0.90964103    0.07440000
opls_185-104    H    0.38478989    0.43646995    0.26686040    0.07420000
opls_144-105    H    0.58606011    0.48963012    0.45029060    0.10810000
opls_144-106    H    0.42042991    0.50817998    0.81382906    0.09970000
opls_146-107    H    0.52304990    0.35136002    0.57062963    0.12190000
opls_146-108    H    0.56538983    0.31905006    0.59603989    0.12150000
opls_146-109    H    0.67012005    0.43341009    0.22568091    0.12180000
opls_146-110    H    0.62878004    0.46573013    0.24000000    0.12340000
opls_146-111    H    0.48303989    0.64352987    0.17968946    0.11640000
opls_146-112    H    0.44118990    0.67635010    0.17284900    0.12160000
opls_146-113    H    0.34188989    0.56712997    0.65950997    0.12200000
opls_146-114    H    0.38273988    0.53437997    0.68923932    0.11210000
opls_146-115    H    0.70450005    0.40550017    0.47682051    0.11560000
opls_146-116    H    0.29495988    0.69570996    0.71943020    0.12180000
opls_146-117    H    0.55530997    0.04910000    0.76370085    0.11900000
opls_146-118    H    0.41305003    0.94427000    0.12613960    0.11910000
opls_185-119    H    0.39200980    0.03473002    0.78441026    0.08300000
opls_185-120    H    0.44769986    0.06546995    0.71974074    0.08370000
opls_185-121    H    0.42278977    0.07388006    0.11807977    0.07380000
opls_185-122    H    0.58116000    0.98853010    0.96802849    0.07440000
opls_185-123    H    0.58280977    0.96238998    0.55054986    0.07670000
opls_185-124    H    0.54451977    0.93327006    0.88623077    0.08360000
opls_144-125    H    0.49403999    0.09524002    0.18037037    0.09870000
opls_144-126    H    0.48201982    0.90327002    0.03135897    0.10780000
opls_146-127    H    0.62823009    0.16070018    0.80333903    0.11870000
opls_146-128    H    0.66661987    0.23405006    0.85362963    0.24900000
opls_146-129    H    0.56762990    0.23408009    0.45590028    0.12120000
opls_146-130    H    0.52612998    0.16096990    0.34621083    0.12180000
opls_146-131    H    0.34792977    0.82538010    0.05800855    0.11730000
opls_146-132    H    0.31988992    0.75151001    0.06904843    0.12390000
opls_146-133    H    0.43478002    0.76849011    0.62315954    0.12250000
opls_146-134    H    0.46339006    0.84278014    0.65008832    0.12300000
opls_146-135    H    0.59479009    0.29443007    0.21268091    0.08850000
opls_146-136    H    0.30354996    0.58862998    0.95150997    0.12340000
opls_146-137    H    0.95348000    0.52826002    0.85231054    0.12040000
opls_146-138    H    0.05090975    0.47569993    0.99827920    0.11780000
opls_185-139    H    0.91705982    0.36403011    0.98425926    0.08120000
opls_185-140    H    0.95425988    0.37141006    0.63415954    0.08310000
opls_185-141    H    0.92805979    0.40139002    0.61639031    0.08450000
opls_185-142    H    0.04292001    0.63972009    0.65454986    0.07440000
opls_185-143    H    0.06377989    0.62302996    0.02511966    0.07400000
opls_185-144    H    0.00832002    0.60512016    0.00841026    0.08440000
opls_144-145    H    0.90239981    0.41508986    0.10494872    0.11290000
opls_144-146    H    0.10192004    0.59023012    0.82862963    0.10200000
opls_146-147    H    0.82920994    0.47892005    0.90896011    0.11430000
opls_146-148    H    0.75473996    0.43356989    0.98580912    0.12230000
opls_146-149    H    0.77797984    0.35057995    0.62135043    0.24980000
opls_146-150    H    0.84954990    0.38971006    0.48717094    0.12170000
opls_146-151    H    0.16841991    0.51895016    0.62480057    0.12190000
opls_146-152    H    0.24331998    0.55843988    0.61753846    0.11870000
opls_146-153    H    0.23868006    0.66258016    0.08592877    0.12170000
opls_146-154    H    0.16491006    0.62407021    0.06980912    0.11980000
opls_146-155    H    0.41293977    0.70726007    0.88400000    0.09780000
opls_185-156    H    0.70049998    0.24400005    0.37815100    0.09180000
opls_185-157    H    0.74381992    0.28936001    0.53084900    0.11190000
opls_140-158    H    0.73645012    0.23878998    0.86584900    0.08300000
opls_140-159    H    0.80203001    0.30034006    0.69264103    0.10460000
opls_140-160    H    0.80841974    0.32092000    0.13754986    0.09740000
opls_140-161    H    0.84995983    0.29510999    0.28564103    0.10630000
opls_140-162    H    0.84703011    0.27641001    0.83339031    0.11470000
opls_140-163    H    0.81507012    0.22234010    0.40700855    0.08570000
opls_140-164    H    0.79238996    0.20955997    0.95715100    0.08540000
opls_910-165    H    0.73751995    0.19834007    0.29821937    0.27080000
