#======================================================================
# Crystal Data Generated By AuToFF
#----------------------------------------------------------------------

data_AuToFF_phase_1

_cell_length_a                         25.7882
_cell_length_b                         6.7443
_cell_length_c                         25.8979
_cell_angle_alpha                      90.00
_cell_angle_beta                       100.38
_cell_angle_gamma                      90.00
_symmetry_space_group_name_H-M_alt     'P 1'
_symmetry_space_group_IT_number        1

loop_
_space_group_symop_operation_xyz
   'x, y, z'

loop_
   _atom_site_label
   _atom_site_type_symbol
   _atom_site_fract_x
   _atom_site_fract_y
   _atom_site_fract_z
   _atom_site_charge
opls_166-0    C    0.46749988    0.50000000    0.45016994    0.25290000
opls_145-1    C    0.95338978    0.50000000    0.96379982    -0.23690000
opls_166-2    C    0.53249996    0.50000000    0.54983988    0.25290000
opls_145-3    C    0.04661006    0.50000000    0.03621000    -0.23690000
opls_145-4    C    0.47753993    0.50000000    0.54527015    -0.25450000
opls_166-5    C    0.04908997    0.50000000    0.98285990    0.34400000
opls_145-6    C    0.52246007    0.50000000    0.45472985    -0.25840000
opls_166-7    C    0.95091003    0.50000000    0.01714010    0.34400000
opls_142-8    C    0.61329000    0.50000000    0.50948019    0.06860000
opls_142-9    C    0.00335000    0.50000000    0.11307999    0.07150000
opls_142-10    C    0.38671000    0.50000000    0.49051981    0.06850000
opls_142-11    C    0.99665000    0.50000000    0.88692001    0.07150000
opls_700-12    C    0.44472004    0.50000000    0.49561988    -0.05170000
opls_700-13    C    0.00132975    0.50000000    0.94516016    -0.03580000
opls_700-14    C    0.55527010    0.50000000    0.50438994    -0.04860000
opls_700-15    C    0.99866986    0.50000000    0.05483984    -0.03580000
opls_543-16    C    0.95810983    0.50000000    0.61025988    0.18000000
opls_543-17    C    0.11012996    0.50000000    0.45716015    0.18000000
opls_543-18    C    0.04189017    0.50000000    0.38974012    0.18000000
opls_543-19    C    0.88987004    0.50000000    0.54283985    0.18000000
opls_716-20    C    0.91207986    0.50000000    0.63115986    -0.17520000
opls_716-21    C    0.13064014    0.50000000    0.41104993    -0.17520000
opls_716-22    C    0.08792014    0.50000000    0.36884014    -0.17520000
opls_716-23    C    0.86935986    0.50000000    0.58895007    -0.17520000
opls_543-24    C    0.06208989    0.50000000    0.62027983    0.20310000
opls_543-25    C    0.12116994    0.50000000    0.56079018    0.20280000
opls_543-26    C    0.93791011    0.50000000    0.37972017    0.20310000
opls_543-27    C    0.87882997    0.50000000    0.43922003    0.20280000
opls_716-28    C    0.11687987    0.50000000    0.64926997    -0.20230000
opls_716-29    C    0.15075976    0.50000000    0.61514993    -0.20920000
opls_716-30    C    0.88312013    0.50000000    0.35073003    -0.20230000
opls_716-31    C    0.84923986    0.50000000    0.38485007    -0.20250000
opls_700-32    C    0.01554001    0.50000000    0.64034014    -0.13730000
opls_700-33    C    0.14082985    0.50000000    0.51415983    -0.13730000
opls_700-34    C    0.98445990    0.50000000    0.35967007    -0.13730000
opls_700-35    C    0.85917015    0.50000000    0.48584017    -0.13730000
opls_700-36    C    0.02108009    0.50000000    0.69796005    0.06700000
opls_700-37    C    0.19864990    0.50000000    0.51910994    0.06720000
opls_700-38    C    0.97891991    0.50000000    0.30203995    0.06800000
opls_700-39    C    0.80135010    0.50000000    0.48089006    0.06720000
opls_145-40    C    0.02365989    0.32018000    0.72546987    -0.12750000
opls_145-41    C    0.22623000    0.67980072    0.52125996    -0.12600000
opls_145-42    C    0.97634011    0.32018000    0.27453013    -0.12750000
opls_145-43    C    0.77377000    0.67980072    0.47874004    -0.12600000
opls_145-44    C    0.97634011    0.67982000    0.27453013    -0.12750000
opls_145-45    C    0.77377000    0.32019928    0.47874004    -0.12600000
opls_145-46    C    0.02365989    0.67982000    0.72546987    -0.12750000
opls_145-47    C    0.22623000    0.32019928    0.52125996    -0.12600000
opls_145-48    C    0.02886975    0.32055958    0.78021000    -0.16750000
opls_145-49    C    0.28110983    0.67947007    0.52556000    -0.17550000
opls_145-50    C    0.97113009    0.32055958    0.21979981    -0.16750000
opls_145-51    C    0.71888978    0.67947007    0.47444000    -0.17550000
opls_145-52    C    0.97113009    0.67944042    0.21979981    -0.16750000
opls_145-53    C    0.71888978    0.32052993    0.47444000    -0.17550000
opls_145-54    C    0.02886975    0.67944042    0.78021000    -0.16750000
opls_145-55    C    0.28110983    0.32052993    0.52556000    -0.17550000
opls_145-56    C    0.03124003    0.50000000    0.80754984    0.19010000
opls_145-57    C    0.30854002    0.50000000    0.52749019    0.19010000
opls_145-58    C    0.96874989    0.50000000    0.19245016    0.19010000
opls_145-59    C    0.69145998    0.50000000    0.47250981    0.19010000
opls_750-60    N    0.36449010    0.50000000    0.53173017    -0.36040000
opls_750-61    N    0.03689982    0.50000000    0.86342014    -0.30650000
opls_750-62    N    0.63550990    0.50000000    0.46826983    -0.36040000
opls_750-63    N    0.96310009    0.50000000    0.13659007    -0.30640000
opls_542-64    N    0.94232983    0.50000000    0.55807999    -0.29190000
opls_542-65    N    0.05766978    0.50000000    0.44192001    -0.29200000
opls_542-66    N    0.06775001    0.50000000    0.56693012    -0.31110000
opls_542-67    N    0.93224999    0.50000000    0.43306988    -0.31060000
opls_545-68    H    0.96640006    0.50000000    0.53384015    0.28710000
opls_545-69    H    0.03359994    0.50000000    0.46615985    0.28710000
opls_547-70    H    0.90950988    0.50000000    0.67238003    0.11530000
opls_547-71    H    0.17194006    0.50000000    0.40809007    0.11830000
opls_547-72    H    0.09048004    0.50000000    0.32761997    0.11530000
opls_547-73    H    0.82805994    0.50000000    0.59190993    0.11830000
opls_547-74    H    0.12860974    0.50000000    0.69153983    0.11680000
opls_547-75    H    0.19323991    0.50000000    0.62645981    0.11410000
opls_547-76    H    0.87138987    0.50000000    0.30846017    0.11680000
opls_547-77    H    0.80674984    0.50000000    0.37355000    0.11730000
opls_146-78    H    0.02176008    0.18085939    0.70445997    0.11470000
opls_146-79    H    0.20513991    0.81910947    0.51959985    0.11500000
opls_146-80    H    0.97823992    0.18085939    0.29554003    0.11470000
opls_146-81    H    0.79486009    0.81910947    0.48040015    0.11500000
opls_146-82    H    0.97823992    0.81914061    0.29554003    0.11470000
opls_146-83    H    0.79486009    0.18089943    0.48040015    0.11480000
opls_146-84    H    0.02176008    0.81914061    0.70445997    0.11470000
opls_146-85    H    0.20513991    0.18089943    0.51959985    0.11470000
opls_146-86    H    0.03114996    0.18252005    0.80170000    0.11560000
opls_146-87    H    0.30257005    0.81769939    0.52731982    0.11780000
opls_146-88    H    0.96885004    0.18252005    0.19830000    0.11780000
opls_146-89    H    0.69742995    0.81769939    0.47268018    0.11780000
opls_146-90    H    0.96885004    0.81747995    0.19830000    0.11780000
opls_146-91    H    0.69742995    0.18230061    0.47268018    0.11780000
opls_146-92    H    0.03114996    0.81747995    0.80170000    0.11560000
opls_146-93    H    0.30257005    0.18230061    0.52731982    0.11780000
opls_146-94    H    0.46046983    0.50000000    0.58047992    0.11910000
opls_144-95    H    0.63736986    0.50000000    0.54854013    0.09580000
opls_146-96    H    0.91620988    0.50000000    0.93656989    0.11440000
opls_144-97    H    0.04264988    0.50000000    0.13686996    0.09700000
opls_545-98    H    0.03845978    0.50000000    0.53798984    0.28700000
opls_168-99    H    0.45503008    0.50000000    0.37032007    0.29350000
opls_168-100    H    0.10288005    0.50000000    0.93323004    0.29750000
opls_146-101    H    0.53952978    0.50000000    0.41952008    0.11910000
opls_144-102    H    0.36263005    0.50000000    0.45147008    0.10560000
opls_146-103    H    0.08379012    0.50000000    0.06343011    0.11320000
opls_144-104    H    0.95734973    0.50000000    0.86313004    0.09700000
opls_545-105    H    0.96153983    0.50000000    0.46201016    0.28700000
opls_168-106    H    0.54496992    0.50000000    0.62967993    0.29350000
opls_168-107    H    0.89711995    0.50000000    0.06676996    0.29750000
opls_167-108    O    0.43508011    0.50000000    0.40071005    -0.47540000
opls_167-109    O    0.10003004    0.50000000    0.97142989    -0.45720000
opls_167-110    O    0.56491989    0.50000000    0.59928995    -0.47540000
opls_167-111    O    0.89996996    0.50000000    0.02857011    -0.45720000
