#======================================================================
# Crystal Data Generated By AuToFF
#----------------------------------------------------------------------

data_AuToFF_phase_1

_cell_length_a                         40.3158
_cell_length_b                         40.3158
_cell_length_c                         3.5000
_cell_angle_alpha                      90.00
_cell_angle_beta                       90.00
_cell_angle_gamma                      119.99
_symmetry_space_group_name_H-M_alt     'P 1'
_symmetry_space_group_IT_number        1

loop_
_space_group_symop_operation_xyz
   'x, y, z'

loop_
   _atom_site_label
   _atom_site_type_symbol
   _atom_site_fract_x
   _atom_site_fract_y
   _atom_site_fract_z
   _atom_site_charge
opls_145-0    C    0.31943980    0.68022988    0.41324000    -0.11650000
opls_700-1    C    0.29139978    0.63937987    0.44506000    0.05240000
opls_145-2    C    0.30950977    0.61631984    0.47894000    -0.20080000
opls_700-3    C    0.35001992    0.62991007    0.47403143    0.05200000
opls_145-4    C    0.37335999    0.67037000    0.43158000    -0.22660000
opls_700-5    C    0.36112991    0.69791991    0.40384000    0.05310000
opls_700-6    C    0.04383983    0.51565989    0.48689143    -0.04470000
opls_145-7    C    0.02621985    0.53816000    0.55834000    -0.27940000
opls_166-8    C    0.98518980    0.52410982    0.56661143    0.22310000
opls_189-9    C    0.00690007    0.41111006    0.26367143    0.08960000
opls_142-10    C    0.08566983    0.53019982    0.46143143    0.01150000
opls_716-11    C    0.95674996    0.65327998    0.76299143    0.02600000
opls_716-12    C    0.98631988    0.64603980    0.70198000    0.02600000
opls_136-13    C    0.88317986    0.64477993    0.06179143    -0.28450000
opls_141-14    C    0.88911000    0.61299990    0.94915143    0.17030000
opls_136-15    C    0.14014984    0.42552999    0.92948000    -0.28680000
opls_139-16    C    0.18182988    0.43848985    0.75792857    0.13430000
opls_280-17    C    0.17303999    0.39887995    0.59588000    0.15920000
opls_139-18    C    0.15451993    0.35741991    0.75990000    0.13430000
opls_135-19    C    0.81220000    0.52020992    0.39172000    -0.51660000
opls_135-20    C    0.77287993    0.54137999    0.10680857    -0.51660000
opls_135-21    C    0.86865996    0.68772982    0.38228857    -0.51650000
opls_135-22    C    0.80825003    0.64634997    0.10568857    -0.51660000
opls_145-23    C    0.81951990    0.43598987    0.63443143    -0.21240000
opls_145-24    C    0.84033992    0.41748990    0.52311143    0.16440000
opls_145-25    C    0.22185982    0.58216986    0.35322000    -0.19020000
opls_700-26    C    0.24876987    0.62148992    0.44846857    0.05310000
opls_145-27    C    0.22752983    0.64014999    0.54764000    -0.15850000
opls_145-28    C    0.18613989    0.62201003    0.56110000    -0.21520000
opls_261-29    C    0.49646977    0.95277989    0.37852857    -0.06120000
opls_142-30    C    0.52558982    0.99447994    0.34088000    -0.16670000
opls_183-31    C    0.53105993    0.03342997    0.48969143    0.14500000
opls_143-32    C    0.45512981    0.91671991    0.87261143    0.07230000
opls_261-33    C    0.48069982    0.89892993    0.37297143    0.06450000
opls_716-34    C    0.42018991    0.03824005    0.93926857    -0.00160000
opls_716-35    C    0.44785009    0.03825008    0.13559143    0.01250000
opls_143-36    C    0.37492016    0.09321013    0.04689143    -0.31790000
opls_141-37    C    0.38588005    0.06383987    0.14759143    0.16720000
opls_136-38    C    0.64707998    0.97621997    0.70126000    -0.32050000
opls_139-39    C    0.69112988    0.00197988    0.84982857    0.13430000
opls_280-40    C    0.70089000    0.97069991    0.96810857    0.15080000
opls_261-41    C    0.67406991    0.92488001    0.02854857    0.13490000
opls_135-42    C    0.26764986    0.96740975    0.33651143    -0.51660000
opls_135-43    C    0.31307999    0.96268989    0.97453143    -0.51650000
MOF2_C_2-44    C    0.30263994    0.10281997    0.03198000    -0.50690000
opls_135-45    C    0.32418993    0.08147004    0.64914000    -0.43000000
opls_145-46    C    0.58593991    0.19030985    0.53430857    -0.20780000
opls_145-47    C    0.54614006    0.17522003    0.63388000    0.15530000
opls_145-48    C    0.38480978    0.77001982    0.47078857    -0.13750000
opls_700-49    C    0.39087986    0.73906004    0.37780000    0.05310000
opls_145-50    C    0.43049002    0.75421000    0.26856000    -0.15850000
opls_145-51    C    0.45994990    0.79400978    0.26884000    -0.19460000
opls_700-52    C    0.51951001    0.47711998    0.44116000    -0.04700000
opls_145-53    C    0.53733987    0.51273003    0.62732857    -0.22060000
opls_166-54    C    0.51865991    0.53444999    0.68325143    0.17400000
opls_189-55    C    0.42478987    0.41022996    0.97693143    0.09110000
opls_142-56    C    0.53833998    0.45495982    0.38410857    0.06620000
opls_716-57    C    0.55764988    0.65704985    0.50434000    0.02560000
opls_716-58    C    0.54424005    0.62365997    0.30892000    0.02520000
opls_136-59    C    0.60597980    0.73273978    0.78282000    -0.32010000
opls_141-60    C    0.62226981    0.70975995    0.62459143    0.17560000
opls_136-61    C    0.33598996    0.27402011    0.47750000    -0.31560000
opls_139-62    C    0.29996999    0.23313000    0.33474857    0.13410000
opls_280-63    C    0.31859988    0.20813993    0.22226000    0.15300000
opls_141-64    C    0.36394005    0.22056995    0.15194000    0.13450000
opls_135-65    C    0.73941982    0.80098991    0.47626000    -0.51660000
opls_135-66    C    0.72411981    0.74749995    0.84296857    -0.51660000
MOF2_C_2-67    C    0.61418993    0.80826990    0.78226857    -0.50710000
opls_135-68    C    0.63548987    0.78581991    0.17102000    -0.43420000
opls_145-69    C    0.42588981    0.59910981    0.63627143    -0.21130000
opls_145-70    C    0.40837994    0.56052980    0.51165143    0.16040000
opls_145-71    C    0.59359000    0.37963992    0.36246000    -0.13720000
opls_700-72    C    0.63198002    0.39386996    0.49676000    0.05240000
opls_145-73    C    0.64969997    0.43315996    0.60762857    -0.13540000
opls_145-74    C    0.63045998    0.45488994    0.60348857    -0.19460000
opls_145-75    C    0.68055981    0.31976984    0.58676000    -0.11650000
opls_700-76    C    0.70859983    0.36061985    0.55494000    0.05240000
opls_145-77    C    0.69048984    0.38367987    0.52106000    -0.20070000
opls_700-78    C    0.64997984    0.37008993    0.52596857    0.05200000
opls_145-79    C    0.62664001    0.32963000    0.56842000    -0.22670000
opls_700-80    C    0.63887009    0.30208009    0.59616000    0.05310000
opls_700-81    C    0.95615978    0.48433982    0.51310857    -0.04460000
opls_145-82    C    0.97377990    0.46184000    0.44166000    -0.27940000
opls_166-83    C    0.01480981    0.47588989    0.43338857    0.22290000
opls_189-84    C    0.99309993    0.58888994    0.73632857    0.08960000
opls_142-85    C    0.91433003    0.46979990    0.53856857    0.01150000
opls_716-86    C    0.04325004    0.34672002    0.23701143    0.02600000
opls_716-87    C    0.01367997    0.35395992    0.29802000    0.02600000
opls_136-88    C    0.11681989    0.35522007    0.93821143    -0.28450000
opls_141-89    C    0.11088985    0.38699981    0.05084857    0.17030000
opls_136-90    C    0.85984991    0.57447001    0.07052000    -0.28680000
opls_139-91    C    0.81816997    0.56150986    0.24207143    0.13430000
opls_280-92    C    0.82696001    0.60112005    0.40412000    0.15920000
opls_139-93    C    0.84547993    0.64257981    0.24010000    0.13430000
opls_135-94    C    0.18780000    0.47979008    0.60828000    -0.51660000
opls_135-95    C    0.22712007    0.45862001    0.89318857    -0.51660000
opls_135-96    C    0.13133989    0.31226990    0.61771143    -0.51660000
opls_135-97    C    0.19174997    0.35365003    0.89430857    -0.51660000
opls_145-98    C    0.18047996    0.56400984    0.36557143    -0.21240000
opls_145-99    C    0.15965993    0.58250982    0.47688857    0.16440000
opls_145-100    C    0.77813979    0.41782985    0.64678000    -0.19030000
opls_700-101    C    0.75122989    0.37851008    0.55153143    0.05310000
opls_145-102    C    0.77246992    0.35985001    0.45236000    -0.15850000
opls_145-103    C    0.81385986    0.37798997    0.43890000    -0.21520000
opls_261-104    C    0.50352999    0.04722011    0.62147143    -0.06120000
opls_142-105    C    0.47440993    0.00552006    0.65912000    -0.16660000
opls_183-106    C    0.46893982    0.96657003    0.51030857    0.14500000
opls_143-107    C    0.54486994    0.08328009    0.12739143    0.07230000
opls_261-108    C    0.51929993    0.10107007    0.62703143    0.06450000
opls_716-109    C    0.57980984    0.96175995    0.06072857    -0.00160000
opls_716-110    C    0.55214991    0.96174992    0.86440857    0.01250000
opls_143-111    C    0.62507984    0.90678987    0.95311143    -0.31790000
opls_141-112    C    0.61411981    0.93615985    0.85241143    0.16720000
opls_136-113    C    0.35292002    0.02378003    0.29874000    -0.32060000
opls_139-114    C    0.30886972    0.99801983    0.15017143    0.13430000
opls_280-115    C    0.29911000    0.02930009    0.03189143    0.15090000
opls_261-116    C    0.32593009    0.07511999    0.97145143    0.13490000
opls_135-117    C    0.73234999    0.03258996    0.66348857    -0.51660000
opls_135-118    C    0.68692001    0.03731011    0.02547143    -0.51660000
MOF2_C_2-119    C    0.69736006    0.89718003    0.96802000    -0.50690000
opls_135-120    C    0.67580982    0.91852996    0.35086000    -0.42990000
opls_145-121    C    0.41405994    0.80968987    0.46569143    -0.20770000
opls_145-122    C    0.45385994    0.82477997    0.36612000    0.15530000
opls_145-123    C    0.61518983    0.22997989    0.52921143    -0.13750000
opls_700-124    C    0.60911989    0.26093996    0.62220000    0.05310000
opls_145-125    C    0.56950998    0.24579000    0.73144000    -0.15850000
opls_145-126    C    0.54004996    0.20598993    0.73116000    -0.19460000
opls_700-127    C    0.48048999    0.52288002    0.55884000    -0.04690000
opls_145-128    C    0.46265988    0.48726997    0.37267143    -0.22060000
opls_166-129    C    0.48134009    0.46555001    0.31674857    0.17400000
opls_189-130    C    0.57520989    0.58977004    0.02306857    0.09110000
opls_142-131    C    0.46165988    0.54503989    0.61589143    0.06620000
opls_716-132    C    0.44234997    0.34294986    0.49566000    0.02560000
opls_716-133    C    0.45575995    0.37634003    0.69108000    0.02520000
opls_136-134    C    0.39402006    0.26725993    0.21718000    -0.32010000
opls_141-135    C    0.37772994    0.29024005    0.37541143    0.17570000
opls_136-136    C    0.66400979    0.72597989    0.52250000    -0.31550000
opls_139-137    C    0.70003001    0.76687000    0.66524857    0.13410000
opls_280-138    C    0.68139973    0.79185978    0.77774000    0.15300000
opls_141-139    C    0.63605995    0.77943005    0.84806000    0.13450000
opls_135-140    C    0.26057993    0.19901009    0.52374000    -0.51660000
opls_135-141    C    0.27587994    0.25250005    0.15703143    -0.51660000
MOF2_C_2-142    C    0.38581007    0.19173010    0.21773143    -0.50710000
opls_135-143    C    0.36451013    0.21418009    0.82898000    -0.43420000
opls_145-144    C    0.57410980    0.40088990    0.36373143    -0.21130000
opls_145-145    C    0.59161991    0.43946991    0.48834857    0.16040000
opls_145-146    C    0.40640986    0.62035979    0.63754000    -0.13720000
opls_700-147    C    0.36801998    0.60613004    0.50324000    0.05240000
opls_145-148    C    0.35030003    0.56684004    0.39236857    -0.13540000
opls_145-149    C    0.36954002    0.54511006    0.39651143    -0.19460000
opls_179-150    O    0.02795991    0.45086001    0.37252857    -0.23250000
opls_281-151    O    0.19579004    0.40336010    0.35980000    -0.40570000
opls_180-152    O    0.43923986    0.93559994    0.68028000    -0.16820000
opls_281-153    O    0.73460981    0.97799994    0.98131143    -0.45230000
opls_179-154    O    0.46235009    0.43199001    0.13322000    -0.16700000
opls_281-155    O    0.29914014    0.17296006    0.21784000    -0.49360000
opls_179-156    O    0.97203985    0.54913999    0.62747143    -0.23250000
opls_281-157    O    0.80420996    0.59663990    0.64020000    -0.40580000
opls_180-158    O    0.56076014    0.06440006    0.31972000    -0.16820000
opls_281-159    O    0.26538994    0.02200006    0.01869143    -0.45210000
opls_179-160    O    0.53764991    0.56800999    0.86678000    -0.16700000
opls_281-161    O    0.70085986    0.82703994    0.78216000    -0.49380000
opls_750-162    N    0.11909991    0.56641990    0.50454000    -0.28910000
opls_900-163    N    0.97150985    0.60824996    0.74798857    -0.01780000
opls_750-164    N    0.93529994    0.59344999    0.82539143    0.02260000
opls_239-165    N    0.92496004    0.61952007    0.84166857    -0.02880000
opls_750-166    N    0.48352976    0.86497985    0.35266000    -0.23210000
opls_750-167    N    0.48320014    0.06967010    0.12517143    -0.22040000
opls_750-168    N    0.46169008    0.08863003    0.13573143    0.05300000
opls_239-169    N    0.42258992    0.06814989    0.09078000    -0.01550000
opls_750-170    N    0.57358999    0.46129985    0.50944857    -0.29620000
opls_900-171    N    0.57489986    0.62065994    0.21313143    -0.02980000
opls_750-172    N    0.60524982    0.65104978    0.32704000    -0.01090000
opls_239-173    N    0.59623981    0.67391992    0.50028000    -0.02260000
opls_750-174    N    0.88089995    0.43357982    0.49546000    -0.28910000
opls_900-175    N    0.02848990    0.39175004    0.25201143    -0.01770000
opls_750-176    N    0.06470006    0.40655001    0.17460857    0.02260000
opls_239-177    N    0.07503996    0.38047993    0.15832857    -0.02880000
opls_750-178    N    0.51646985    0.13501986    0.64734000    -0.23200000
opls_750-179    N    0.51679986    0.93032990    0.87482857    -0.22030000
opls_750-180    N    0.53830992    0.91136997    0.86427143    0.05300000
opls_239-181    N    0.57740993    0.93184982    0.90922000    -0.01550000
opls_750-182    N    0.42640987    0.53869987    0.49055143    -0.29630000
opls_900-183    N    0.42509989    0.37934006    0.78687143    -0.02980000
opls_750-184    N    0.39475004    0.34894993    0.67296000    -0.01090000
opls_239-185    N    0.40375994    0.32608008    0.49972000    -0.02260000
opls_146-186    H    0.30875978    0.69835982    0.39099143    0.20710000
opls_146-187    H    0.29219000    0.58756992    0.51620000    0.20710000
opls_146-188    H    0.40190974    0.68056983    0.42054000    0.20690000
opls_146-189    H    0.04465998    0.56656997    0.60330000    0.20720000
opls_190-190    H    0.99657014    0.41124009    0.98542857    0.09430000
opls_190-191    H    0.98072988    0.39419990    0.42616857    0.07420000
opls_144-192    H    0.09242994    0.50957992    0.39776000    0.10160000
opls_715-193    H    0.95959994    0.67988992    0.75356000    0.10050000
opls_715-194    H    0.01408987    0.66590990    0.64010857    0.10100000
opls_140-195    H    0.89950991    0.66848979    0.88398000    0.16650000
opls_140-196    H    0.90290983    0.65252990    0.29794857    0.09540000
opls_140-197    H    0.13768993    0.44610006    0.09692000    0.16690000
opls_140-198    H    0.12327997    0.42506001    0.68714000    0.09750000
opls_140-199    H    0.80280988    0.49972004    0.16020857    0.10080000
opls_140-200    H    0.79012992    0.50430988    0.59538000    0.09740000
opls_140-201    H    0.83649999    0.51738001    0.47557143    0.10070000
opls_140-202    H    0.75184989    0.51406980    0.23524000    0.10730000
opls_140-203    H    0.76693975    0.53485982    0.81688857    0.13690000
opls_140-204    H    0.75955000    0.55852988    0.16582857    0.10090000
opls_140-205    H    0.87258994    0.70663991    0.14636857    0.09990000
opls_140-206    H    0.89859995    0.70157981    0.46592000    0.09880000
opls_140-207    H    0.85496006    0.69712000    0.58190000    0.13620000
opls_140-208    H    0.78069974    0.62071980    0.15263143    0.09930000
opls_140-209    H    0.80725007    0.65258001    0.81797143    0.13690000
opls_140-210    H    0.80321979    0.66788978    0.24133143    0.10280000
opls_146-211    H    0.83515998    0.46390980    0.71622857    0.20700000
opls_146-212    H    0.23249004    0.56527000    0.26321143    0.20710000
opls_146-213    H    0.24265974    0.66848979    0.61936000    0.20700000
opls_146-214    H    0.17481999    0.63873002    0.63976000    0.20700000
opls_144-215    H    0.55267000    0.00415995    0.27830857    0.20720000
opls_185-216    H    0.54564012    0.03227006    0.73888857    0.09320000
opls_185-217    H    0.43338977    0.88625990    0.84724857    0.05690000
opls_185-218    H    0.43544000    0.91270001    0.09742000    0.10070000
MOF2_H_-219    H    0.45309985    0.88106003    0.37076000    0.08460000
opls_715-220    H    0.39857984    0.01476991    0.81458000    0.09710000
opls_715-221    H    0.43754998    0.01173006    0.21534857    0.09740000
opls_144-222    H    0.39305996    0.10627997    0.80096000    0.09770000
opls_144-223    H    0.38890988    0.11813003    0.22733143    0.08490000
opls_140-224    H    0.63427981    0.99368976    0.67150857    0.16430000
opls_140-225    H    0.64877000    0.97275998    0.41282000    0.16660000
opls_140-226    H    0.26102993    0.93912981    0.42536000    0.10050000
opls_140-227    H    0.24511987    0.95746997    0.12190000    0.09310000
opls_140-228    H    0.25738984    0.97901981    0.54714000    0.13700000
opls_140-229    H    0.33603977    0.96973989    0.78238000    0.13700000
opls_140-230    H    0.28854988    0.93658000    0.87782857    0.09530000
opls_140-231    H    0.32081001    0.94932993    0.20142857    0.09680000
opls_144-232    H    0.27377999    0.08672003    0.15240857    0.10700000
opls_144-233    H    0.29496991    0.11591988    0.79350000    0.14150000
opls_144-234    H    0.31903012    0.12828003    0.19105143    0.13690000
opls_930-235    H    0.33567009    0.06610013    0.56162000    0.13720000
opls_930-236    H    0.34454993    0.11125988    0.57134000    0.10510000
opls_930-237    H    0.29414003    0.06497000    0.54729143    0.14350000
opls_146-238    H    0.59535000    0.17211002    0.45717143    0.20720000
opls_146-239    H    0.35791982    0.76373994    0.55176857    0.20700000
opls_146-240    H    0.43940992    0.73595003    0.17752000    0.20710000
opls_146-241    H    0.48699994    0.80068976    0.18906000    0.20700000
opls_146-242    H    0.56464001    0.52311000    0.72571143    0.20700000
opls_190-243    H    0.41822993    0.42690986    0.78130000    0.09490000
opls_190-244    H    0.40254997    0.39978984    0.19245143    0.08440000
opls_144-245    H    0.52335999    0.43052995    0.23073143    0.10170000
opls_715-246    H    0.54044996    0.66635984    0.61866000    0.10050000
opls_715-247    H    0.51627983    0.60538998    0.25106857    0.10170000
opls_140-248    H    0.59086999    0.71700986    0.03210000    0.08680000
opls_140-249    H    0.58062993    0.72838995    0.63258000    0.09750000
opls_140-250    H    0.33253012    0.29910010    0.44181143    0.08910000
opls_140-251    H    0.33757995    0.27235011    0.77250857    0.16650000
opls_140-252    H    0.73500003    0.81688995    0.26024857    0.13490000
opls_140-253    H    0.76277995    0.79675979    0.39102000    0.10110000
opls_140-254    H    0.75594987    0.82303980    0.68697143    0.09310000
opls_140-255    H    0.73021996    0.73272002    0.61732000    0.09680000
opls_140-256    H    0.70977977    0.72426980    0.04109143    0.09800000
opls_140-257    H    0.75343977    0.76474979    0.93478857    0.09770000
opls_144-258    H    0.58382991    0.79005003    0.70912000    0.10500000
opls_144-259    H    0.62624993    0.83078003    0.58198857    0.13690000
opls_144-260    H    0.61135991    0.82542981    0.00940000    0.10540000
opls_140-261    H    0.65712985    0.81549977    0.25606857    0.09510000
opls_140-262    H    0.64397988    0.76729989    0.26006857    0.13720000
opls_140-263    H    0.60523983    0.77163998    0.26379143    0.10770000
opls_146-264    H    0.45361998    0.61249985    0.72925143    0.20700000
opls_146-265    H    0.57836987    0.35256000    0.25462000    0.20700000
opls_146-266    H    0.67735986    0.44665997    0.70288000    0.20700000
opls_146-267    H    0.64530989    0.48277980    0.69232857    0.20700000
opls_146-268    H    0.69123983    0.30163989    0.60900857    0.20710000
opls_146-269    H    0.70781000    0.41243008    0.48380000    0.20710000
opls_146-270    H    0.59808986    0.31942988    0.57946000    0.20690000
opls_146-271    H    0.95534002    0.43343003    0.39670000    0.20710000
opls_190-272    H    0.00342986    0.58875991    0.01456857    0.09430000
opls_190-273    H    0.01926997    0.60579982    0.57383143    0.07420000
opls_144-274    H    0.90757006    0.49042008    0.60224000    0.10160000
opls_715-275    H    0.04040006    0.32011008    0.24644000    0.10050000
opls_715-276    H    0.98591013    0.33409010    0.35988857    0.10100000
opls_140-277    H    0.10048995    0.33150992    0.11602000    0.16650000
opls_140-278    H    0.09708978    0.34746982    0.70204857    0.09540000
opls_140-279    H    0.86230982    0.55389994    0.90308000    0.16690000
opls_140-280    H    0.87672003    0.57493999    0.31286000    0.09750000
opls_140-281    H    0.19718987    0.50027996    0.83978857    0.10080000
opls_140-282    H    0.20986993    0.49568983    0.40462000    0.09740000
opls_140-283    H    0.16350001    0.48261999    0.52442857    0.10070000
opls_140-284    H    0.24814997    0.48592991    0.76476000    0.10730000
opls_140-285    H    0.23305986    0.46513989    0.18310857    0.13690000
opls_140-286    H    0.24044986    0.44146984    0.83417143    0.10090000
opls_140-287    H    0.12741006    0.29336009    0.85363143    0.10030000
opls_140-288    H    0.10139991    0.29841991    0.53408000    0.09880000
opls_140-289    H    0.14503994    0.30288000    0.41810000    0.13620000
opls_140-290    H    0.21929987    0.37927992    0.84736857    0.10090000
opls_140-291    H    0.19274993    0.34741999    0.18203143    0.13690000
opls_140-292    H    0.19677982    0.33210993    0.75867143    0.10270000
opls_146-293    H    0.16483988    0.53608991    0.28377143    0.20710000
opls_146-294    H    0.76750996    0.43473000    0.73679143    0.20710000
opls_146-295    H    0.75733987    0.33150992    0.38064000    0.20700000
opls_146-296    H    0.82518001    0.36126998    0.36024000    0.20700000
opls_144-297    H    0.44733000    0.99584005    0.72168857    0.20720000
opls_185-298    H    0.45435988    0.96772994    0.26110857    0.09320000
opls_185-299    H    0.56660998    0.11374010    0.15275143    0.05690000
opls_185-300    H    0.56456000    0.08729999    0.90258000    0.10070000
MOF2_H_-301    H    0.54689991    0.11893997    0.62924000    0.08470000
opls_715-302    H    0.60141977    0.98522981    0.18542000    0.09710000
opls_715-303    H    0.56245002    0.98826994    0.78464857    0.09740000
opls_144-304    H    0.60694004    0.89372003    0.19904000    0.09770000
opls_144-305    H    0.61108987    0.88186997    0.77266857    0.08490000
opls_140-306    H    0.36572004    0.00630995    0.32849143    0.16420000
opls_140-307    H    0.35123000    0.02724002    0.58718000    0.16660000
opls_140-308    H    0.73896993    0.06086990    0.57464000    0.10050000
opls_140-309    H    0.75488013    0.04253003    0.87810000    0.09310000
opls_140-310    H    0.74261001    0.02097990    0.45286000    0.13700000
opls_140-311    H    0.66395998    0.03026011    0.21762000    0.13700000
opls_140-312    H    0.71145012    0.06342000    0.12217143    0.09530000
opls_140-313    H    0.67918999    0.05067007    0.79857143    0.09680000
opls_144-314    H    0.72622001    0.91327997    0.84759143    0.10700000
opls_144-315    H    0.70502995    0.88407983    0.20650000    0.14150000
opls_144-316    H    0.68096988    0.87171997    0.80895143    0.13690000
opls_930-317    H    0.66432991    0.93389987    0.43838000    0.13720000
opls_930-318    H    0.65544992    0.88873983    0.42866000    0.10520000
opls_930-319    H    0.70585997    0.93503000    0.45270857    0.14350000
opls_146-320    H    0.40465000    0.82788998    0.54282857    0.20720000
opls_146-321    H    0.64207993    0.23626006    0.44823143    0.20700000
opls_146-322    H    0.56059008    0.26404997    0.82248000    0.20710000
opls_146-323    H    0.51299992    0.19930995    0.81094000    0.20700000
opls_146-324    H    0.43535999    0.47689000    0.27428857    0.20720000
opls_190-325    H    0.58176993    0.57308985    0.21870000    0.09490000
opls_190-326    H    0.59744988    0.60020987    0.80754857    0.08440000
opls_144-327    H    0.47664001    0.56947005    0.76927143    0.10170000
opls_715-328    H    0.45954990    0.33363988    0.38134000    0.10050000
opls_715-329    H    0.48371993    0.39461002    0.74893143    0.10170000
opls_140-330    H    0.40912987    0.28298985    0.96790000    0.08680000
opls_140-331    H    0.41937007    0.27161005    0.36742000    0.09750000
opls_140-332    H    0.66746988    0.70089990    0.55818857    0.08900000
opls_140-333    H    0.66241980    0.72764989    0.22749143    0.16650000
opls_140-334    H    0.26499997    0.18311005    0.73975143    0.13490000
opls_140-335    H    0.23721990    0.20323992    0.60898000    0.10100000
opls_140-336    H    0.24404999    0.17695991    0.31302857    0.09310000
opls_140-337    H    0.26978004    0.26727998    0.38268000    0.09680000
opls_140-338    H    0.29021984    0.27572991    0.95890857    0.09800000
opls_140-339    H    0.24655984    0.23524993    0.06520857    0.09770000
opls_144-340    H    0.41617009    0.20994997    0.29088000    0.10500000
opls_144-341    H    0.37375007    0.16921997    0.41801143    0.13680000
opls_144-342    H    0.38863994    0.17456991    0.99060000    0.10550000
opls_140-343    H    0.34287001    0.18449995    0.74393143    0.09510000
opls_140-344    H    0.35602012    0.23270011    0.73992857    0.13720000
opls_140-345    H    0.39475992    0.22836002    0.73621143    0.10760000
opls_146-346    H    0.54637987    0.38749987    0.27075143    0.20700000
opls_146-347    H    0.42162989    0.64744000    0.74538000    0.20700000
opls_146-348    H    0.32263989    0.55334003    0.29712000    0.20700000
opls_146-349    H    0.35468996    0.51721991    0.30767143    0.20700000
