#======================================================================
# Crystal Data Generated By AuToFF
#----------------------------------------------------------------------

data_AuToFF_phase_1

_cell_length_a                         32.9300
_cell_length_b                         32.9300
_cell_length_c                         7.7400
_cell_angle_alpha                      90.00
_cell_angle_beta                       90.00
_cell_angle_gamma                      120.00
_symmetry_space_group_name_H-M_alt     'P 1'
_symmetry_space_group_IT_number        1

loop_
_space_group_symop_operation_xyz
   'x, y, z'

loop_
   _atom_site_label
   _atom_site_type_symbol
   _atom_site_fract_x
   _atom_site_fract_y
   _atom_site_fract_z
   _atom_site_charge
opls_642-0    C    0.66781998    0.29273987    0.03651938    0.59600000
opls_642-1    C    0.70070995    0.37262003    0.94106977    0.44600000
opls_642-2    C    0.62134000    0.33057007    0.07122997    0.49730000
opls_166-3    C    0.63269997    0.20634984    0.05522997    0.39430000
opls_166-4    C    0.57231999    0.36799983    0.11235013    0.39470000
opls_166-5    C    0.78673007    0.42333989    0.86143023    0.39430000
opls_145-6    C    0.60927015    0.41326001    0.17398966    -0.12600000
opls_145-7    C    0.60186996    0.45214989    0.16936047    -0.09120000
opls_700-8    C    0.55722995    0.44643985    0.10670026    0.07470000
opls_145-9    C    0.51993009    0.40102994    0.04929974    -0.10010000
opls_145-10    C    0.52742985    0.36220984    0.05385013    -0.12590000
opls_145-11    C    0.58655013    0.19399002    0.97972997    -0.13060000
opls_145-12    C    0.54778006    0.14661995    0.98248966    -0.10000000
opls_700-13    C    0.55491984    0.11032982    0.05060982    0.07460000
opls_145-14    C    0.60137013    0.12216997    0.11813953    -0.09120000
opls_145-15    C    0.63966009    0.16975989    0.12094057    -0.12720000
opls_145-16    C    0.79839009    0.38958006    0.79525065    -0.13060000
opls_145-17    C    0.84694989    0.39946006    0.79831008    -0.09120000
opls_700-18    C    0.88494984    0.44386992    0.85964987    0.07580000
opls_145-19    C    0.87371998    0.47860000    0.91532946    -0.09120000
opls_145-20    C    0.82501991    0.46831008    0.91551938    -0.13060000
opls_142-21    C    0.51376985    0.06049992    0.04851938    0.03920000
opls_142-22    C    0.54999012    0.48788003    0.10568992    0.03730000
opls_142-23    C    0.49011996    0.94273976    0.03351938    0.04050000
opls_142-24    C    0.93564012    0.45285996    0.86872997    0.03690000
opls_142-25    C    0.05822001    0.54652990    0.90072997    0.03740000
opls_142-26    C    0.46274999    0.51960992    0.98190956    0.03730000
opls_700-27    C    0.45426980    0.56024990    0.98794057    0.07470000
opls_145-28    C    0.48874989    0.60420005    0.06582946    -0.10010000
opls_145-29    C    0.47888006    0.64146009    0.07601034    -0.12700000
opls_166-30    C    0.43471991    0.63592994    0.00909044    0.39430000
opls_145-31    C    0.40169976    0.59280979    0.91977003    -0.12590000
opls_145-32    C    0.41090984    0.55505989    0.91395995    -0.09120000
opls_642-33    C    0.38125006    0.67093984    0.02882041    0.50230000
opls_642-34    C    0.33451999    0.70910983    0.03670026    0.51040000
opls_642-35    C    0.29456983    0.62508985    0.01378036    0.50960000
opls_166-36    C    0.20506004    0.57373988    0.97064987    0.39420000
opls_166-37    C    0.37132006    0.79688003    0.03833979    0.39430000
opls_145-38    C    0.41697001    0.80961996    0.95729974    -0.13060000
opls_145-39    C    0.45569999    0.85703982    0.96040956    -0.10010000
opls_700-40    C    0.44887983    0.89308975    0.03340052    0.07460000
opls_145-41    C    0.40265001    0.88097995    0.10393023    -0.09120000
opls_145-42    C    0.36451990    0.83335987    0.10678036    -0.12720000
opls_145-43    C    0.19624983    0.60739976    0.88333979    -0.13060000
opls_145-44    C    0.14828996    0.59866008    0.86459948    -0.09120000
opls_700-45    C    0.10809975    0.55519980    0.92232041    0.07470000
opls_145-46    C    0.16459978    0.52989983    0.02345995    -0.13060000
opls_145-47    C    0.11657998    0.52049006    0.00000000    -0.09120000
opls_642-48    C    0.66781998    0.29273987    0.53651938    0.59600000
opls_642-49    C    0.70070995    0.37262003    0.44106977    0.44600000
opls_642-50    C    0.62134000    0.33057007    0.57121964    0.49730000
opls_166-51    C    0.63269997    0.20634984    0.55522997    0.39430000
opls_166-52    C    0.57231999    0.36799983    0.61235013    0.39470000
opls_166-53    C    0.78673007    0.42333989    0.36143023    0.39440000
opls_145-54    C    0.60927015    0.41326001    0.67398966    -0.12600000
opls_145-55    C    0.60186996    0.45214989    0.66936047    -0.09120000
opls_700-56    C    0.55722995    0.44643985    0.60670026    0.07470000
opls_145-57    C    0.51993009    0.40102994    0.54929974    -0.10010000
opls_145-58    C    0.52742985    0.36220984    0.55385013    -0.12590000
opls_145-59    C    0.58655013    0.19399002    0.47972997    -0.13060000
opls_145-60    C    0.54778006    0.14661995    0.48248966    -0.10000000
opls_700-61    C    0.55491984    0.11032982    0.55060982    0.07460000
opls_145-62    C    0.60137013    0.12216997    0.61813953    -0.09120000
opls_145-63    C    0.63966009    0.16975989    0.62094057    -0.12710000
opls_145-64    C    0.79839009    0.38958006    0.29525065    -0.13060000
opls_145-65    C    0.84694989    0.39946006    0.29831008    -0.09120000
opls_700-66    C    0.88494984    0.44386992    0.35964987    0.07580000
opls_145-67    C    0.87371998    0.47860000    0.41533979    -0.09110000
opls_145-68    C    0.82501991    0.46831008    0.41551938    -0.13060000
opls_142-69    C    0.51376985    0.06049992    0.54851938    0.03920000
opls_142-70    C    0.54999012    0.48788003    0.60568992    0.03730000
opls_142-71    C    0.49011996    0.94273976    0.53351938    0.04050000
opls_142-72    C    0.93564012    0.45285996    0.36872997    0.03690000
opls_142-73    C    0.05822001    0.54652990    0.40072997    0.03740000
opls_142-74    C    0.46274999    0.51960992    0.48190956    0.03730000
opls_700-75    C    0.45426980    0.56024990    0.48794057    0.07470000
opls_145-76    C    0.48874989    0.60420005    0.56582946    -0.10010000
opls_145-77    C    0.47888006    0.64146009    0.57601034    -0.12700000
opls_166-78    C    0.43471991    0.63592994    0.50909044    0.39430000
opls_145-79    C    0.40169976    0.59280979    0.41977003    -0.12590000
opls_145-80    C    0.41090984    0.55505989    0.41395995    -0.09120000
opls_642-81    C    0.38125006    0.67093984    0.52882041    0.50230000
opls_642-82    C    0.33451999    0.70910983    0.53670026    0.51040000
opls_642-83    C    0.29456983    0.62508985    0.51378036    0.50960000
opls_166-84    C    0.20506004    0.57373988    0.47064987    0.39430000
opls_166-85    C    0.37132006    0.79688003    0.53833979    0.39440000
opls_145-86    C    0.41697001    0.80961996    0.45729974    -0.13060000
opls_145-87    C    0.45569999    0.85703982    0.46040956    -0.10010000
opls_700-88    C    0.44887983    0.89308975    0.53340052    0.07460000
opls_145-89    C    0.40265001    0.88097995    0.60393023    -0.09120000
opls_145-90    C    0.36451990    0.83335987    0.60678036    -0.12720000
opls_145-91    C    0.19624983    0.60739976    0.38333979    -0.13060000
opls_145-92    C    0.14828996    0.59866008    0.36459948    -0.09120000
opls_700-93    C    0.10809975    0.55519980    0.42232041    0.07470000
opls_145-94    C    0.16459978    0.52989983    0.52345995    -0.13060000
opls_145-95    C    0.11657998    0.52049006    0.50000000    -0.09120000
opls_641-96    N    0.62642994    0.29186990    0.09386951    -0.34560000
opls_641-97    N    0.70523980    0.33360988    0.03425969    -0.34180000
opls_641-98    N    0.65830010    0.37049998    0.99117959    -0.34060000
opls_750-99    N    0.52171002    0.02518986    0.05701938    -0.16820000
opls_750-100    N    0.48241983    0.97794989    0.05505943    -0.16910000
opls_750-101    N    0.97271977    0.49568977    0.88962016    -0.14660000
opls_750-102    N    0.02050007    0.50362996    0.90544961    -0.14670000
opls_750-103    N    0.50975001    0.48410981    0.04408010    -0.16800000
opls_750-104    N    0.50270997    0.52331001    0.04641990    -0.16790000
opls_641-105    N    0.37861003    0.71122006    0.04113953    -0.34670000
opls_641-106    N    0.29271990    0.66584976    0.02648062    -0.34870000
opls_641-107    N    0.33891985    0.62795995    0.01889018    -0.34030000
opls_641-108    N    0.62642994    0.29186990    0.59386951    -0.34570000
opls_641-109    N    0.70523980    0.33360988    0.53425969    -0.34170000
opls_641-110    N    0.65830010    0.37049998    0.49117959    -0.34060000
opls_750-111    N    0.52171002    0.02518986    0.55701938    -0.16820000
opls_750-112    N    0.48241983    0.97794989    0.55505943    -0.16910000
opls_750-113    N    0.97271977    0.49568977    0.38963049    -0.14670000
opls_750-114    N    0.02050007    0.50362996    0.40544961    -0.14670000
opls_750-115    N    0.50975001    0.48410981    0.54408010    -0.16800000
opls_750-116    N    0.50270997    0.52331001    0.54641990    -0.16790000
opls_641-117    N    0.37861003    0.71122006    0.54113953    -0.34670000
opls_641-118    N    0.29271990    0.66584976    0.52648062    -0.34870000
opls_641-119    N    0.33891985    0.62795995    0.51889018    -0.34030000
opls_180-120    O    0.57672983    0.32710983    0.12256977    -0.27750000
opls_180-121    O    0.67393997    0.25303999    0.05447028    -0.27670000
opls_180-122    O    0.73855006    0.41536008    0.86510982    -0.27460000
opls_180-123    O    0.42810984    0.67558985    0.02625969    -0.27760000
opls_180-124    O    0.33018008    0.75010993    0.04360982    -0.27700000
opls_180-125    O    0.25211002    0.57961998    0.00000000    -0.27470000
opls_180-126    O    0.57672983    0.32710983    0.62256977    -0.27750000
opls_180-127    O    0.67393997    0.25303999    0.55447028    -0.27670000
opls_180-128    O    0.73855006    0.41536008    0.36510982    -0.27460000
opls_180-129    O    0.42810984    0.67558985    0.52625969    -0.27750000
opls_180-130    O    0.33018008    0.75010993    0.54360982    -0.27700000
opls_180-131    O    0.25211002    0.57961998    0.50000000    -0.27470000
opls_146-132    H    0.64346992    0.41704005    0.22491990    0.04560000
opls_146-133    H    0.63067000    0.48809007    0.21445995    0.04560000
opls_146-134    H    0.48535992    0.39701987    0.00164987    0.04560000
opls_146-135    H    0.49809989    0.32623986    0.01140956    0.04560000
opls_146-136    H    0.58113000    0.22230981    0.91756977    0.04560000
opls_146-137    H    0.51208985    0.13853985    0.93085013    0.04560000
opls_146-138    H    0.60762014    0.09333016    0.16975065    0.04560000
opls_146-139    H    0.67529993    0.17838000    0.17495995    0.04560000
opls_146-140    H    0.76973010    0.35490995    0.74001034    0.04560000
opls_146-141    H    0.85565994    0.37185981    0.75164987    0.04560000
opls_146-142    H    0.90277987    0.51447987    0.95981008    0.04560000
opls_146-143    H    0.81772996    0.49704996    0.96008010    0.04560000
opls_144-144    H    0.47642017    0.05399005    0.03963953    0.02690000
opls_144-145    H    0.57854993    0.52313994    0.15718992    0.02690000
opls_144-146    H    0.52745014    0.94977001    0.01525065    0.02690000
opls_144-147    H    0.94251980    0.42229985    0.85745995    0.02690000
opls_144-148    H    0.05388992    0.57844003    0.87995995    0.02690000
opls_144-149    H    0.43536994    0.48492999    0.92240052    0.02690000
opls_146-150    H    0.52303993    0.60835985    0.11754005    0.04560000
opls_146-151    H    0.50545979    0.67628975    0.13685013    0.04560000
opls_146-152    H    0.36910993    0.58982994    0.85601034    0.04560000
opls_146-153    H    0.38450994    0.52041011    0.85150000    0.04560000
opls_146-154    H    0.42200014    0.78157999    0.89056977    0.04560000
opls_146-155    H    0.49114994    0.86537975    0.90521059    0.04510000
opls_146-156    H    0.39649004    0.90967003    0.15786951    0.04560000
opls_146-157    H    0.32918978    0.82492982    0.16336047    0.04560000
opls_146-158    H    0.22672993    0.64098005    0.82864987    0.04560000
opls_146-159    H    0.14177994    0.62637009    0.80331008    0.04560000
opls_146-160    H    0.16962984    0.50133985    0.08566021    0.04560000
opls_146-161    H    0.08583979    0.48549980    0.04352972    0.04560000
opls_146-162    H    0.64346992    0.41704005    0.72491990    0.04560000
opls_146-163    H    0.63067000    0.48809007    0.71445995    0.04560000
opls_146-164    H    0.48535992    0.39701987    0.50164987    0.04560000
opls_146-165    H    0.49809989    0.32623986    0.51140956    0.04560000
opls_146-166    H    0.58113000    0.22230981    0.41756977    0.04570000
opls_146-167    H    0.51208985    0.13853985    0.43085013    0.04560000
opls_146-168    H    0.60762014    0.09333016    0.66974935    0.04560000
opls_146-169    H    0.67529993    0.17838000    0.67495995    0.04560000
opls_146-170    H    0.76973010    0.35490995    0.24001938    0.04560000
opls_146-171    H    0.85565994    0.37185981    0.25164987    0.04560000
opls_146-172    H    0.90277987    0.51447987    0.45981008    0.04560000
opls_146-173    H    0.81772996    0.49704996    0.46008010    0.04560000
opls_144-174    H    0.47642017    0.05399005    0.53963953    0.02690000
opls_144-175    H    0.57854993    0.52313994    0.65718992    0.02690000
opls_144-176    H    0.52745014    0.94977001    0.51524935    0.02690000
opls_144-177    H    0.94251980    0.42229985    0.35745995    0.02690000
opls_144-178    H    0.05388992    0.57844003    0.37995995    0.02690000
opls_144-179    H    0.43536994    0.48492999    0.42240052    0.02690000
opls_146-180    H    0.52303993    0.60835985    0.61754005    0.04560000
opls_146-181    H    0.50545979    0.67628975    0.63685013    0.04560000
opls_146-182    H    0.36910993    0.58982994    0.35601034    0.04560000
opls_146-183    H    0.38450994    0.52041011    0.35150000    0.04560000
opls_146-184    H    0.42200014    0.78157999    0.39056977    0.04560000
opls_146-185    H    0.49114994    0.86537975    0.40521059    0.04510000
opls_146-186    H    0.39649004    0.90967003    0.65786951    0.04560000
opls_146-187    H    0.32918978    0.82492982    0.66336047    0.04560000
opls_146-188    H    0.22672993    0.64098005    0.32864987    0.04560000
opls_146-189    H    0.14177994    0.62637009    0.30331008    0.04560000
opls_146-190    H    0.16962984    0.50133985    0.58566021    0.04560000
opls_146-191    H    0.08583979    0.48549980    0.54352972    0.04560000
