#======================================================================
# Crystal Data Generated By AuToFF
#----------------------------------------------------------------------

data_AuToFF_phase_1

_cell_length_a                         28.2551
_cell_length_b                         10.5195
_cell_length_c                         27.9301
_cell_angle_alpha                      90.00
_cell_angle_beta                       119.93
_cell_angle_gamma                      90.00
_symmetry_space_group_name_H-M_alt     'P 1'
_symmetry_space_group_IT_number        1

loop_
_space_group_symop_operation_xyz
   'x, y, z'

loop_
   _atom_site_label
   _atom_site_type_symbol
   _atom_site_fract_x
   _atom_site_fract_y
   _atom_site_fract_z
   _atom_site_charge
opls_145-0    C    0.44224993    0.50000000    0.42480026    -0.20820000
opls_145-1    C    0.48082014    0.50000000    0.05665012    -0.20820000
opls_145-2    C    0.07437009    0.50000000    0.01672997    -0.20820000
opls_145-3    C    0.90828015    0.50000000    0.87436021    -0.20670000
opls_145-4    C    0.62533019    0.50000000    0.03695011    -0.20670000
opls_145-5    C    0.46750996    0.50000000    0.59291008    -0.20660000
opls_145-6    C    0.55774992    0.50000000    0.57520015    -0.20820000
opls_145-7    C    0.51918997    0.50000000    0.94335030    -0.20820000
opls_145-8    C    0.92562991    0.50000000    0.98327003    -0.20820000
opls_145-9    C    0.09172005    0.50000000    0.12564021    -0.20660000
opls_145-10    C    0.37467001    0.50000000    0.96305030    -0.20670000
opls_145-11    C    0.53249010    0.50000000    0.40708000    -0.20660000
opls_700-12    C    0.49579978    0.50000000    0.47238988    0.06030000
opls_700-13    C    0.47631004    0.50000000    0.00327989    0.06370000
opls_700-14    C    0.02727006    0.50000000    0.02332982    0.06030000
opls_145-15    C    0.96161007    0.50000000    0.92051004    -0.13770000
opls_145-16    C    0.57851998    0.50000000    0.04284020    -0.13770000
opls_145-17    C    0.45982988    0.50000000    0.53893007    -0.13290000
opls_700-18    C    0.50419986    0.50000000    0.52761012    0.06030000
opls_700-19    C    0.52368996    0.50000000    0.99672011    0.06370000
opls_700-20    C    0.97272994    0.50000000    0.97667018    0.06030000
opls_145-21    C    0.03838993    0.50000000    0.07948996    -0.13770000
opls_145-22    C    0.42148022    0.50000000    0.95716021    -0.13770000
opls_145-23    C    0.54016976    0.50000000    0.46106993    -0.13770000
opls_624-24    C    0.43528021    0.50000000    0.37156017    0.13980000
opls_624-25    C    0.43415001    0.50000000    0.06203989    0.13840000
opls_624-26    C    0.12697001    0.50000000    0.06285997    0.13980000
opls_624-27    C    0.86434007    0.50000000    0.88402017    0.13830000
opls_624-28    C    0.61753980    0.50000000    0.98351998    0.13960000
opls_624-29    C    0.52093989    0.50000000    0.63732020    0.13830000
opls_624-30    C    0.56471999    0.50000000    0.62844024    0.13980000
opls_624-31    C    0.56584999    0.50000000    0.93796011    0.13820000
opls_624-32    C    0.87302999    0.50000000    0.93714003    0.13980000
opls_624-33    C    0.13565999    0.50000000    0.11596992    0.13830000
opls_624-34    C    0.38245985    0.50000000    0.01648002    0.13960000
opls_624-35    C    0.47905996    0.50000000    0.36268022    0.13830000
opls_627-36    C    0.40447993    0.50000000    0.28232019    0.26780000
opls_627-37    C    0.37548011    0.50000000    0.09119990    0.26670000
opls_627-38    C    0.21515983    0.50000000    0.12084989    0.26780000
opls_627-39    C    0.59551992    0.50000000    0.71768022    0.26780000
opls_627-40    C    0.62451989    0.50000000    0.90880010    0.26620000
opls_627-41    C    0.78484017    0.50000000    0.87915011    0.26780000
opls_700-42    C    0.63189992    0.50000000    0.77612996    -0.19500000
opls_700-43    C    0.64653001    0.50000000    0.87245028    -0.19690000
opls_700-44    C    0.72703997    0.50000000    0.85754018    -0.19690000
opls_700-45    C    0.36810015    0.50000000    0.22386013    -0.19500000
opls_700-46    C    0.35347025    0.50000000    0.12754022    -0.19500000
opls_700-47    C    0.27296010    0.50000000    0.14244991    -0.19630000
opls_280-48    C    0.61182013    0.50000000    0.81391006    0.28150000
opls_280-49    C    0.70390994    0.50000000    0.89274024    0.28150000
opls_280-50    C    0.68976000    0.50000000    0.79950027    0.28150000
opls_280-51    C    0.38817993    0.50000000    0.18608002    0.28150000
opls_280-52    C    0.29610017    0.50000000    0.10726017    0.28150000
opls_280-53    C    0.31024020    0.50000000    0.20050014    0.28160000
opls_146-54    H    0.40727016    0.50000000    0.42661021    0.23690000
opls_146-55    H    0.51690985    0.50000000    0.09271983    0.23640000
opls_146-56    H    0.07262988    0.50000000    0.97956007    0.23690000
opls_146-57    H    0.90149004    0.50000000    0.83488005    0.23610000
opls_146-58    H    0.66385988    0.50000000    0.07033981    0.23610000
opls_146-59    H    0.43529993    0.50000000    0.59984995    0.23610000
opls_146-60    H    0.59273005    0.50000000    0.57339020    0.23690000
opls_146-61    H    0.48309015    0.50000000    0.90728017    0.23640000
opls_146-62    H    0.92736997    0.50000000    0.02044035    0.23690000
opls_146-63    H    0.09850996    0.50000000    0.16511995    0.23610000
opls_146-64    H    0.33614012    0.50000000    0.92966019    0.23630000
opls_146-65    H    0.56470007    0.50000000    0.40015005    0.23610000
opls_146-66    H    0.58657002    0.50000000    0.08259014    0.23630000
opls_146-67    H    0.99192009    0.50000000    0.91095998    0.23630000
opls_146-68    H    0.42013005    0.50000000    0.50831004    0.23630000
opls_562-69    H    0.35348002    0.50000000    0.31606023    0.28320000
opls_562-70    H    0.18190995    0.50000000    0.03559006    0.28310000
opls_562-71    H    0.69207018    0.50000000    0.98806035    0.28310000
opls_146-72    H    0.41343018    0.50000000    0.91741028    0.23630000
opls_146-73    H    0.00807991    0.50000000    0.08904002    0.23630000
opls_146-74    H    0.57987002    0.50000000    0.49168005    0.23630000
opls_562-75    H    0.64653010    0.50000000    0.68394018    0.28310000
opls_562-76    H    0.81809025    0.50000000    0.96441035    0.28310000
opls_562-77    H    0.30793009    0.50000000    0.01193015    0.28310000
opls_559-78    N    0.53994016    0.50000000    0.69170013    -0.39300000
opls_557-79    N    0.65272009    0.50000000    0.96498006    -0.35920000
opls_559-80    N    0.81058993    0.50000000    0.84892008    -0.39310000
opls_557-81    N    0.17579975    0.50000000    0.06672982    -0.36100000
opls_559-82    N    0.42953018    0.50000000    0.10727009    -0.38050000
opls_557-83    N    0.39033007    0.50000000    0.32218994    -0.36100000
opls_559-84    N    0.46005984    0.50000000    0.30829987    -0.39310000
opls_557-85    N    0.34727991    0.50000000    0.03501994    -0.35920000
opls_559-86    N    0.18941007    0.50000000    0.15107992    -0.39310000
opls_557-87    N    0.82419990    0.50000000    0.93327018    -0.36100000
opls_559-88    N    0.57047003    0.50000000    0.89273032    -0.38050000
opls_557-89    N    0.60966993    0.50000000    0.67781006    -0.36100000
opls_281-90    O    0.70893007    0.50000000    0.76753011    -0.40410000
opls_281-91    O    0.56107987    0.50000000    0.79460997    -0.40240000
opls_281-92    O    0.73546005    0.50000000    0.94401999    -0.36450000
opls_281-93    O    0.29106999    0.50000000    0.23245998    -0.36450000
opls_281-94    O    0.43892019    0.50000000    0.20538011    -0.40240000
opls_281-95    O    0.26454002    0.50000000    0.05597009    -0.36450000
