#======================================================================
# Crystal Data Generated By AuToFF
#----------------------------------------------------------------------

data_AuToFF_phase_1

_cell_length_a                         35.1800
_cell_length_b                         35.1800
_cell_length_c                         3.3900
_cell_angle_alpha                      90.00
_cell_angle_beta                       90.00
_cell_angle_gamma                      120.00
_symmetry_space_group_name_H-M_alt     'P 1'
_symmetry_space_group_IT_number        1

loop_
_space_group_symop_operation_xyz
   'x, y, z'

loop_
   _atom_site_label
   _atom_site_type_symbol
   _atom_site_fract_x
   _atom_site_fract_y
   _atom_site_fract_z
   _atom_site_charge
opls_531-0    C    0.28869987    0.64684999    0.20299115    0.34930000
opls_700-1    C    0.24297013    0.62640017    0.25225074    0.04940000
opls_523-2    C    0.34848996    0.57104019    0.33764897    -0.18590000
opls_145-3    C    0.36908023    0.54715022    0.44356047    -0.21750000
opls_145-4    C    0.41514008    0.56882991    0.46233923    0.19700000
opls_145-5    C    0.44063003    0.61297013    0.34968142    -0.21720000
opls_523-6    C    0.41999006    0.63678001    0.24613864    -0.20910000
opls_142-7    C    0.42841008    0.51326018    0.77492920    0.10360000
opls_700-8    C    0.46399994    0.50731994    0.86838938    -0.10810000
opls_727-9    C    0.45671014    0.46436002    0.90835988    0.13810000
opls_727-10    C    0.49265017    0.45683018    0.91405015    0.12890000
opls_531-11    C    0.35315019    0.64185012    0.20299115    0.34870000
opls_700-12    C    0.37360001    0.61657012    0.25225074    0.04940000
opls_523-13    C    0.42896007    0.77744999    0.33764897    -0.18590000
opls_145-14    C    0.45285000    0.82193025    0.44356047    -0.21750000
opls_145-15    C    0.43117019    0.84631026    0.46233923    0.19700000
opls_145-16    C    0.38703017    0.82766010    0.34968142    -0.21720000
opls_523-17    C    0.36322014    0.78321004    0.24613864    -0.20910000
opls_142-18    C    0.48673001    0.91515018    0.77492920    0.10360000
opls_700-19    C    0.49267997    0.95668002    0.86838938    -0.10710000
opls_727-20    C    0.53564005    0.99235003    0.90835988    0.13810000
opls_727-21    C    0.54317010    0.03582001    0.91405015    0.12890000
opls_531-22    C    0.35816006    0.71130021    0.20299115    0.34930000
opls_700-23    C    0.38343003    0.75703004    0.25225074    0.04940000
opls_523-24    C    0.22255013    0.65151015    0.33764897    -0.18590000
opls_145-25    C    0.17807010    0.63092018    0.44356047    -0.21750000
opls_145-26    C    0.15369017    0.58486016    0.46233923    0.19700000
opls_145-27    C    0.17233996    0.55937009    0.34968142    -0.21720000
opls_523-28    C    0.21679008    0.58000996    0.24613864    -0.20910000
opls_142-29    C    0.08484984    0.57158997    0.77492920    0.10360000
opls_700-30    C    0.04332009    0.53600004    0.86838938    -0.10810000
opls_727-31    C    0.00765009    0.54328995    0.90835988    0.13810000
opls_727-32    C    0.96418019    0.50735014    0.91405015    0.12890000
opls_531-33    C    0.71130013    0.35315001    0.20299115    0.34930000
opls_700-34    C    0.75703004    0.37360016    0.25225074    0.04940000
opls_523-35    C    0.65151020    0.42896014    0.33764897    -0.18590000
opls_145-36    C    0.63091994    0.45285011    0.44356047    -0.21750000
opls_145-37    C    0.58485992    0.43117009    0.46233923    0.19700000
opls_145-38    C    0.55937013    0.38703020    0.34968142    -0.21720000
opls_523-39    C    0.58000994    0.36321999    0.24613864    -0.20910000
opls_142-40    C    0.57159011    0.48672997    0.77492920    0.10360000
opls_700-41    C    0.53600006    0.49268006    0.86838938    -0.10810000
opls_727-42    C    0.54328986    0.53563998    0.90835988    0.13810000
opls_727-43    C    0.50735000    0.54317015    0.91405015    0.12890000
opls_531-44    C    0.64684998    0.35815021    0.20299115    0.34870000
opls_700-45    C    0.62640015    0.38343021    0.25225074    0.04940000
opls_523-46    C    0.57103993    0.22255001    0.33764897    -0.18590000
opls_145-47    C    0.54715016    0.17807007    0.44356047    -0.21750000
opls_145-48    C    0.56882997    0.15369007    0.46233923    0.19700000
opls_145-49    C    0.61296983    0.17233990    0.34968142    -0.21720000
opls_523-50    C    0.63677986    0.21678996    0.24613864    -0.20910000
opls_142-51    C    0.51326021    0.08485015    0.77492920    0.10360000
opls_700-52    C    0.50732003    0.04331998    0.86838938    -0.10810000
opls_727-53    C    0.46435995    0.00764997    0.90835988    0.13810000
opls_727-54    C    0.45682990    0.96417999    0.91405015    0.12890000
opls_531-55    C    0.64185006    0.28870011    0.20299115    0.34930000
opls_700-56    C    0.61656997    0.24296996    0.25225074    0.04940000
opls_523-57    C    0.77745003    0.34849017    0.33764897    -0.18590000
opls_145-58    C    0.82193007    0.36908015    0.44356047    -0.21750000
opls_145-59    C    0.84630999    0.41514017    0.46233923    0.19700000
opls_145-60    C    0.82766004    0.44062991    0.34968142    -0.21720000
opls_523-61    C    0.78320992    0.41999004    0.24613864    -0.20910000
opls_142-62    C    0.91515016    0.42841003    0.77492920    0.10360000
opls_700-63    C    0.95667991    0.46399996    0.86838938    -0.10810000
opls_727-64    C    0.99234991    0.45671005    0.90835988    0.13810000
opls_727-65    C    0.03581998    0.49265019    0.91405015    0.13170000
opls_520-66    N    0.30903993    0.62294001    0.19997050    -0.46240000
opls_750-67    N    0.43835996    0.55087001    0.59284956    -0.28960000
opls_520-68    N    0.37706013    0.68609012    0.19997050    -0.46390000
opls_750-69    N    0.44912998    0.88749021    0.59284956    -0.28980000
opls_520-70    N    0.31391008    0.69096002    0.19997050    -0.46230000
opls_750-71    N    0.11249999    0.56164011    0.59284956    -0.28960000
opls_520-72    N    0.69096007    0.37705999    0.19997050    -0.46240000
opls_750-73    N    0.56164004    0.44912999    0.59284956    -0.29050000
opls_520-74    N    0.62293987    0.31390988    0.19997050    -0.46240000
opls_750-75    N    0.55086993    0.11249995    0.59284956    -0.28960000
opls_520-76    N    0.68608992    0.30903998    0.19997050    -0.46390000
opls_750-77    N    0.88750001    0.43835989    0.59284956    -0.28960000
opls_526-78    H    0.31488015    0.55502011    0.33369912    0.22230000
opls_146-79    H    0.35055012    0.51461018    0.51246018    0.22230000
opls_146-80    H    0.47430015    0.62793004    0.34971976    0.22230000
opls_526-81    H    0.43928984    0.66919992    0.17313864    0.22230000
opls_144-82    H    0.39646999    0.48977000    0.83223894    0.10850000
opls_526-83    H    0.44498003    0.75986000    0.33369912    0.22230000
opls_146-84    H    0.48539010    0.83593994    0.51246018    0.22230000
opls_146-85    H    0.37206988    0.84637000    0.34971976    0.22230000
opls_526-86    H    0.33080015    0.77010001    0.17313864    0.22230000
opls_144-87    H    0.51022995    0.90669014    0.83223894    0.10810000
opls_526-88    H    0.24013998    0.68512021    0.33369912    0.22230000
opls_146-89    H    0.16406024    0.64945020    0.51246018    0.22230000
opls_146-90    H    0.15362997    0.52569997    0.34971976    0.22230000
opls_526-91    H    0.22989987    0.56070991    0.17313864    0.22230000
opls_144-92    H    0.09330992    0.60353001    0.83223894    0.10800000
opls_526-93    H    0.68511985    0.44497989    0.33369912    0.22230000
opls_146-94    H    0.64945005    0.48539015    0.51246018    0.22230000
opls_146-95    H    0.52569985    0.37206996    0.34971976    0.22230000
opls_526-96    H    0.56071016    0.33080008    0.17313864    0.22230000
opls_144-97    H    0.60353001    0.51023000    0.83223894    0.10810000
opls_526-98    H    0.55501997    0.24014000    0.33369912    0.22230000
opls_146-99    H    0.51460990    0.16406006    0.51246018    0.22230000
opls_146-100    H    0.62793012    0.15363000    0.34971976    0.22230000
opls_526-101    H    0.66920014    0.22989999    0.17313864    0.22230000
opls_144-102    H    0.48977005    0.09330986    0.83223894    0.10810000
opls_526-103    H    0.75986018    0.31488011    0.33369912    0.22230000
opls_146-104    H    0.83593993    0.35055012    0.51246018    0.22230000
opls_146-105    H    0.84637003    0.47430003    0.34971976    0.22230000
opls_526-106    H    0.77010013    0.43929009    0.17313864    0.22230000
opls_144-107    H    0.90669008    0.39646999    0.83223894    0.10800000
opls_719-108    F    0.58393007    0.56738998    0.93745133    -0.13670000
opls_719-109    F    0.48612981    0.41714990    0.96697935    -0.13690000
opls_719-110    F    0.43260996    0.01653999    0.93745133    -0.13670000
opls_719-111    F    0.58284999    0.06898992    0.96697935    -0.13690000
opls_719-112    F    0.98345997    0.41607003    0.93745133    -0.13670000
opls_719-113    F    0.93102001    0.51387003    0.96697935    -0.13690000
opls_719-114    F    0.41606993    0.43261002    0.93745133    -0.13670000
opls_719-115    F    0.51387019    0.58285010    0.96697935    -0.13690000
opls_719-116    F    0.56739004    0.98346001    0.93745133    -0.13670000
opls_719-117    F    0.41715026    0.93102026    0.96697935    -0.13690000
opls_719-118    F    0.01654003    0.58392997    0.93745133    -0.13670000
opls_719-119    F    0.06898994    0.48612997    0.96697935    -0.13690000
