#======================================================================
# Crystal Data Generated By AuToFF
#----------------------------------------------------------------------

data_AuToFF_phase_1

_cell_length_a                         38.0609
_cell_length_b                         38.0609
_cell_length_c                         3.7331
_cell_angle_alpha                      90.00
_cell_angle_beta                       90.00
_cell_angle_gamma                      120.00
_symmetry_space_group_name_H-M_alt     'P 1'
_symmetry_space_group_IT_number        1

loop_
_space_group_symop_operation_xyz
   'x, y, z'

loop_
   _atom_site_label
   _atom_site_type_symbol
   _atom_site_fract_x
   _atom_site_fract_y
   _atom_site_fract_z
   _atom_site_charge
opls_238-0    N    0.39198001    0.77935004    0.50000000    -0.29350000
opls_238-1    N    0.40740013    0.55682002    0.50000000    -0.47650000
opls_238-2    N    0.22064988    0.61262993    0.50000000    -0.29350000
opls_238-3    N    0.44317999    0.85057996    0.50000000    -0.47650000
opls_238-4    N    0.38737011    0.60802003    0.50000000    -0.29350000
opls_238-5    N    0.14942014    0.59260002    0.50000000    -0.47650000
opls_238-6    N    0.60801999    0.22064996    0.50000000    -0.29350000
opls_238-7    N    0.59259987    0.44317998    0.50000000    -0.47650000
opls_238-8    N    0.77935012    0.38737007    0.50000000    -0.29350000
opls_238-9    N    0.55682001    0.14942004    0.50000000    -0.47650000
opls_238-10    N    0.61262989    0.39197997    0.50000000    -0.29350000
opls_238-11    N    0.85057986    0.40739998    0.50000000    -0.47650000
opls_281-12    O    0.40670996    0.72208996    0.50000000    -0.36540000
opls_281-13    O    0.27790996    0.68461982    0.50000000    -0.36540000
opls_281-14    O    0.31537993    0.59328991    0.50000000    -0.36540000
opls_281-15    O    0.59329004    0.27791004    0.50000000    -0.36540000
opls_281-16    O    0.72208989    0.31537988    0.50000000    -0.36540000
opls_281-17    O    0.68462007    0.40671009    0.50000000    -0.36540000
opls_142-18    C    0.35208977    0.74672977    0.50000000    0.10060000
opls_280-19    C    0.37453993    0.69778995    0.50000000    0.22900000
opls_145-20    C    0.34387996    0.70906000    0.50000000    -0.11410000
opls_141-21    C    0.41795991    0.59845985    0.50000000    0.32780000
opls_145-22    C    0.49950005    0.54756989    0.50000000    -0.22780000
opls_145-23    C    0.47366009    0.56354995    0.50000000    -0.23310000
opls_916-24    C    0.43466001    0.54120008    0.50000000    0.17830000
opls_145-25    C    0.42125014    0.50175006    0.50000000    -0.22810000
opls_145-26    C    0.44669980    0.48536984    0.50000000    -0.22580000
opls_145-27    C    0.48626984    0.50837987    0.50000000    0.03200000
opls_142-28    C    0.25326996    0.60535998    0.50000000    0.10060000
opls_280-29    C    0.30220995    0.67674978    0.50000000    0.22900000
opls_145-30    C    0.29094001    0.63481992    0.50000000    -0.11410000
opls_141-31    C    0.40153998    0.81949996    0.50000000    0.32780000
opls_145-32    C    0.45243008    0.95192998    0.50000000    -0.22780000
opls_145-33    C    0.43645005    0.91010994    0.50000000    -0.23310000
opls_916-34    C    0.45880014    0.89346002    0.50000000    0.17830000
opls_145-35    C    0.49824984    0.91949993    0.50000000    -0.22810000
opls_145-36    C    0.51463003    0.96132998    0.50000000    -0.22580000
opls_145-37    C    0.49161982    0.97788980    0.50000000    0.03200000
opls_142-38    C    0.39463985    0.64790995    0.50000000    0.10060000
opls_280-39    C    0.32324997    0.62545997    0.50000000    0.22900000
opls_145-40    C    0.36517988    0.65611978    0.50000000    -0.11410000
opls_141-41    C    0.18049996    0.58203989    0.50000000    0.32780000
opls_145-42    C    0.04806998    0.50049982    0.50000000    -0.22780000
opls_145-43    C    0.08988997    0.52633980    0.50000000    -0.23300000
opls_916-44    C    0.10653986    0.56533990    0.50000000    0.17830000
opls_145-45    C    0.08050002    0.57875001    0.50000000    -0.22800000
opls_145-46    C    0.03867002    0.55329987    0.50000000    -0.22580000
opls_145-47    C    0.02210992    0.51373002    0.50000000    0.03200000
opls_142-48    C    0.64791008    0.25326993    0.50000000    0.10060000
opls_280-49    C    0.62546007    0.30221005    0.50000000    0.22900000
opls_145-50    C    0.65612004    0.29094000    0.50000000    -0.11410000
opls_141-51    C    0.58203994    0.40153985    0.50000000    0.32780000
opls_145-52    C    0.50049980    0.45242980    0.50000000    -0.22780000
opls_145-53    C    0.52633991    0.43645005    0.50000000    -0.23310000
opls_916-54    C    0.56533999    0.45879992    0.50000000    0.17830000
opls_145-55    C    0.57874986    0.49824994    0.50000000    -0.22810000
opls_145-56    C    0.55330005    0.51462985    0.50000000    -0.22580000
opls_145-57    C    0.51373001    0.49161982    0.50000000    0.03200000
opls_142-58    C    0.74673004    0.39464002    0.50000000    0.10060000
opls_280-59    C    0.69778989    0.32324992    0.50000000    0.22900000
opls_145-60    C    0.70905999    0.36518008    0.50000000    -0.11410000
opls_141-61    C    0.59846002    0.18050004    0.50000000    0.32800000
opls_145-62    C    0.54756992    0.04807002    0.50000000    -0.22780000
opls_145-63    C    0.56354995    0.08989006    0.50000000    -0.23310000
opls_916-64    C    0.54119986    0.10653998    0.50000000    0.17830000
opls_145-65    C    0.50175016    0.08050007    0.50000000    -0.22810000
opls_145-66    C    0.48536997    0.03867002    0.50000000    -0.22580000
opls_145-67    C    0.50838002    0.02210990    0.50000000    0.03200000
opls_142-68    C    0.60536015    0.35209005    0.50000000    0.10060000
opls_280-69    C    0.67675003    0.37454003    0.50000000    0.22910000
opls_145-70    C    0.63481997    0.34387991    0.50000000    -0.11410000
opls_141-71    C    0.81949989    0.41795981    0.50000000    0.32780000
opls_145-72    C    0.95192986    0.49949987    0.50000000    -0.22780000
opls_145-73    C    0.91010987    0.47365989    0.50000000    -0.23310000
opls_916-74    C    0.89346014    0.43466010    0.50000000    0.17830000
opls_145-75    C    0.91949998    0.42124999    0.50000000    -0.22800000
opls_145-76    C    0.96132983    0.44669982    0.50000000    -0.22580000
opls_145-77    C    0.97789008    0.48626998    0.50000000    0.03200000
opls_474-78    S    0.45503002    0.62843979    0.50000000    -0.12610000
opls_474-79    S    0.37156005    0.82659000    0.50000000    -0.12610000
opls_474-80    S    0.17341005    0.54496991    0.50000000    -0.12610000
opls_474-81    S    0.54496983    0.37155991    0.50000000    -0.12610000
opls_474-82    S    0.62843995    0.17341000    0.50000000    -0.12610000
opls_474-83    S    0.82658995    0.45503009    0.50000000    -0.12610000
opls_910-84    H    0.41575991    0.77459998    0.50000000    0.24420000
opls_144-85    H    0.32727993    0.75236995    0.50000000    0.09000000
opls_910-86    H    0.37666997    0.53589999    0.50000000    0.23980000
opls_146-87    H    0.52951005    0.56546004    0.50000000    0.21240000
opls_146-88    H    0.48392990    0.59305995    0.50000000    0.21230000
opls_146-89    H    0.39113987    0.48392999    0.50000000    0.21220000
opls_146-90    H    0.43587008    0.45513992    0.50000000    0.21180000
opls_910-91    H    0.22539991    0.64116000    0.50000000    0.24420000
opls_144-92    H    0.24762978    0.57490980    0.50000000    0.09000000
opls_910-93    H    0.46409984    0.84076979    0.50000000    0.23980000
opls_146-94    H    0.43453995    0.96404980    0.50000000    0.21230000
opls_146-95    H    0.40694014    0.89087004    0.50000000    0.21230000
opls_146-96    H    0.51606985    0.90720991    0.50000000    0.21220000
opls_146-97    H    0.54485991    0.98072976    0.50000000    0.21180000
opls_910-98    H    0.35883992    0.58424002    0.50000000    0.24420000
opls_144-99    H    0.42508988    0.67271995    0.50000000    0.09000000
opls_910-100    H    0.15923005    0.62332992    0.50000000    0.23980000
opls_146-101    H    0.03594985    0.47048985    0.50000000    0.21230000
opls_146-102    H    0.10912996    0.51607001    0.50000000    0.21230000
opls_146-103    H    0.09278987    0.60885980    0.50000000    0.21220000
opls_146-104    H    0.01927012    0.56413002    0.50000000    0.21180000
opls_910-105    H    0.58424009    0.22540002    0.50000000    0.24420000
opls_144-106    H    0.67272007    0.24763005    0.50000000    0.09000000
opls_910-107    H    0.62333003    0.46410001    0.50000000    0.23980000
opls_146-108    H    0.47048995    0.43453996    0.50000000    0.21230000
opls_146-109    H    0.51607010    0.40694005    0.50000000    0.21230000
opls_146-110    H    0.60886013    0.51607001    0.50000000    0.21220000
opls_146-111    H    0.56412992    0.54486008    0.50000000    0.21170000
opls_910-112    H    0.77460009    0.35884000    0.50000000    0.24420000
opls_144-113    H    0.75237007    0.42508990    0.50000000    0.09000000
opls_910-114    H    0.53590001    0.15922991    0.50000000    0.23980000
opls_146-115    H    0.56545990    0.03594989    0.50000000    0.21230000
opls_146-116    H    0.59305986    0.10912996    0.50000000    0.21230000
opls_146-117    H    0.48393015    0.09279009    0.50000000    0.21220000
opls_146-118    H    0.45513993    0.01926993    0.50000000    0.21180000
opls_910-119    H    0.64116008    0.41575998    0.50000000    0.24420000
opls_144-120    H    0.57491012    0.32728005    0.50000000    0.09000000
opls_910-121    H    0.84076995    0.37667008    0.50000000    0.23980000
opls_146-122    H    0.96405000    0.52950985    0.50000000    0.21230000
opls_146-123    H    0.89087004    0.48392999    0.50000000    0.21230000
opls_146-124    H    0.90720998    0.39113990    0.50000000    0.21220000
opls_146-125    H    0.98072988    0.43586998    0.50000000    0.21180000
