#======================================================================
# Crystal Data Generated By AuToFF
#----------------------------------------------------------------------

data_AuToFF_phase_1

_cell_length_a                         35.5832
_cell_length_b                         35.5832
_cell_length_c                         4.2857
_cell_angle_alpha                      90.00
_cell_angle_beta                       90.00
_cell_angle_gamma                      120.00
_symmetry_space_group_name_H-M_alt     'P 1'
_symmetry_space_group_IT_number        1

loop_
_space_group_symop_operation_xyz
   'x, y, z'

loop_
   _atom_site_label
   _atom_site_type_symbol
   _atom_site_fract_x
   _atom_site_fract_y
   _atom_site_fract_z
   _atom_site_charge
opls_700-0    C    0.64593009    0.28777004    0.56888956    0.07550000
opls_145-1    C    0.69136008    0.31268992    0.57276058    -0.16250000
opls_700-2    C    0.62521994    0.24117990    0.49612899    0.07120000
opls_145-3    C    0.59079992    0.22365002    0.27701892    -0.12520000
opls_145-4    C    0.57415990    0.18162991    0.16444921    -0.14130000
opls_145-5    C    0.59166008    0.15608990    0.27252958    0.21750000
opls_145-6    C    0.62585006    0.17332999    0.49429965    -0.16260000
opls_145-7    C    0.64241999    0.21551008    0.60468068    -0.12120000
opls_142-8    C    0.53730991    0.09093989    0.06492055    0.08300000
opls_700-9    C    0.51934989    0.04552998    0.98109994    -0.03850000
opls_145-10    C    0.47386010    0.01926015    0.96289988    -0.18810000
opls_166-11    C    0.45440985    0.97402969    0.95951887    0.22380000
opls_189-12    C    0.58249002    0.61544992    0.89600065    0.17960000
opls_182-13    C    0.63555999    0.68736979    0.75631052    -0.02030000
opls_182-14    C    0.64056997    0.73083980    0.67491892    -0.02100000
opls_181-15    C    0.69210989    0.80113000    0.48795996    -0.19210000
opls_700-16    C    0.71222984    0.35815986    0.56888956    0.07550000
opls_145-17    C    0.68730989    0.37867001    0.57276058    -0.16250000
opls_700-18    C    0.75882004    0.38403996    0.49612899    0.07120000
opls_145-19    C    0.77634997    0.36715001    0.27701892    -0.12520000
opls_145-20    C    0.81837011    0.39253004    0.16444921    -0.14130000
opls_145-21    C    0.84391001    0.43557007    0.27252958    0.21750000
opls_145-22    C    0.82667005    0.45252006    0.49429965    -0.16260000
opls_145-23    C    0.78448990    0.42690995    0.60468068    -0.12120000
opls_142-24    C    0.90906007    0.44637000    0.06492055    0.08300000
opls_700-25    C    0.95447000    0.47382006    0.98109994    -0.03850000
opls_145-26    C    0.98074002    0.45459982    0.96289988    -0.18810000
opls_166-27    C    0.02597007    0.48037997    0.95951887    0.22380000
opls_189-28    C    0.38454988    0.96703981    0.89600065    0.17960000
opls_182-29    C    0.31262996    0.94818983    0.75631052    -0.02030000
opls_182-30    C    0.26915989    0.90972989    0.67491892    -0.02100000
opls_181-31    C    0.19886990    0.89097987    0.48795996    -0.19210000
opls_700-32    C    0.64184007    0.35407010    0.56888956    0.07550000
opls_145-33    C    0.62133003    0.30864007    0.57276058    -0.16250000
opls_700-34    C    0.61595985    0.37477982    0.49612899    0.07120000
opls_145-35    C    0.63285012    0.40919997    0.27701892    -0.12520000
opls_145-36    C    0.60746998    0.42584005    0.16444921    -0.14130000
opls_145-37    C    0.56442991    0.40834003    0.27252958    0.21750000
opls_145-38    C    0.54747989    0.37414995    0.49429965    -0.16260000
opls_145-39    C    0.57309010    0.35757997    0.60468068    -0.12120000
opls_142-40    C    0.55362985    0.46268979    0.06492055    0.08300000
opls_700-41    C    0.52618010    0.48064996    0.98109994    -0.03850000
opls_145-42    C    0.54539988    0.52614003    0.96289988    -0.18810000
opls_166-43    C    0.51961991    0.54559001    0.95951887    0.22380000
opls_189-44    C    0.03295994    0.41750995    0.89600065    0.17960000
opls_182-45    C    0.05180989    0.36444005    0.75631052    -0.02030000
opls_182-46    C    0.09026997    0.35942998    0.67491892    -0.02100000
opls_181-47    C    0.10901977    0.30788981    0.48795996    -0.19210000
opls_700-48    C    0.35406991    0.71222996    0.56888956    0.07550000
opls_145-49    C    0.30863976    0.68730976    0.57276058    -0.16250000
opls_700-50    C    0.37477990    0.75881978    0.49612899    0.07120000
opls_145-51    C    0.40920008    0.77634998    0.27701892    -0.12520000
opls_145-52    C    0.42583993    0.81836977    0.16444921    -0.14130000
opls_145-53    C    0.40833976    0.84390978    0.27252958    0.21750000
opls_145-54    C    0.37414994    0.82667001    0.49429965    -0.16260000
opls_145-55    C    0.35758001    0.78448992    0.60468068    -0.12120000
opls_142-56    C    0.46268992    0.90905979    0.06492055    0.08300000
opls_700-57    C    0.48064994    0.95446970    0.98109994    -0.03850000
opls_145-58    C    0.52613990    0.98073985    0.96289988    -0.18810000
opls_166-59    C    0.54558999    0.02596998    0.95951887    0.22380000
opls_189-60    C    0.41750998    0.38455008    0.89600065    0.17960000
opls_182-61    C    0.36443984    0.31262988    0.75631052    -0.02030000
opls_182-62    C    0.35942987    0.26915988    0.67491892    -0.02100000
opls_181-63    C    0.30789011    0.19887000    0.48795996    -0.19210000
opls_700-64    C    0.28776999    0.64183981    0.56888956    0.07550000
opls_145-65    C    0.31269011    0.62132999    0.57276058    -0.16250000
opls_700-66    C    0.24117996    0.61596004    0.49612899    0.07120000
opls_145-67    C    0.22365003    0.63284999    0.27701892    -0.12520000
opls_145-68    C    0.18162989    0.60746996    0.16444921    -0.14130000
opls_145-69    C    0.15608999    0.56442993    0.27252958    0.21750000
opls_145-70    C    0.17332995    0.54747994    0.49429965    -0.16260000
opls_145-71    C    0.21551010    0.57309005    0.60468068    -0.12120000
opls_142-72    C    0.09093993    0.55363000    0.06492055    0.08300000
opls_700-73    C    0.04553000    0.52617994    0.98109994    -0.03850000
opls_145-74    C    0.01925982    0.54539985    0.96289988    -0.18810000
opls_166-75    C    0.97402993    0.51962003    0.95951887    0.22380000
opls_189-76    C    0.61544995    0.03295987    0.89600065    0.17960000
opls_182-77    C    0.68736988    0.05180984    0.75631052    -0.02030000
opls_182-78    C    0.73084011    0.09027011    0.67491892    -0.02100000
opls_181-79    C    0.80113010    0.10902013    0.48795996    -0.19210000
opls_700-80    C    0.35815993    0.64592990    0.56888956    0.07550000
opls_145-81    C    0.37866997    0.69135993    0.57276058    -0.16250000
opls_700-82    C    0.38403998    0.62521985    0.49612899    0.07130000
opls_145-83    C    0.36714988    0.59080003    0.27701892    -0.12520000
opls_145-84    C    0.39253002    0.57415995    0.16444921    -0.14130000
opls_145-85    C    0.43557009    0.59165997    0.27252958    0.21750000
opls_145-86    C    0.45252011    0.62585005    0.49429965    -0.16260000
opls_145-87    C    0.42690990    0.64242003    0.60468068    -0.12120000
opls_142-88    C    0.44636999    0.53730989    0.06492055    0.08300000
opls_700-89    C    0.47381990    0.51935004    0.98109994    -0.03850000
opls_145-90    C    0.45460012    0.47385997    0.96289988    -0.18810000
opls_166-91    C    0.48038009    0.45440999    0.95951887    0.22380000
opls_189-92    C    0.96704006    0.58249005    0.89600065    0.17960000
opls_182-93    C    0.94819011    0.63555995    0.75631052    -0.02030000
opls_182-94    C    0.90973003    0.64057002    0.67491892    -0.02100000
opls_181-95    C    0.89098007    0.69210987    0.48795996    -0.19210000
opls_750-96    N    0.57678010    0.11401008    0.16198054    -0.26160000
opls_750-97    N    0.88598995    0.46276994    0.16198054    -0.26160000
opls_750-98    N    0.53722995    0.42321998    0.16198054    -0.26160000
opls_750-99    N    0.42321990    0.88598992    0.16198054    -0.26160000
opls_750-100    N    0.11401005    0.53723006    0.16198054    -0.26150000
opls_750-101    N    0.46277005    0.57678002    0.16198054    -0.26150000
opls_146-102    H    0.57815002    0.24399986    0.18389995    0.08220000
opls_146-103    H    0.54862992    0.16916007    0.98291061    0.12820000
opls_146-104    H    0.63883017    0.15302006    0.58127960    0.07230000
opls_146-105    H    0.66911985    0.22893981    0.77728959    0.12820000
opls_144-106    H    0.58941998    0.48655989    0.07200924    0.04820000
opls_146-107    H    0.45427989    0.03521000    0.97571925    0.11670000
opls_190-108    H    0.59252987    0.60319977    0.68281028    0.02560000
opls_190-109    H    0.60148987    0.61436996    0.10864970    0.02560000
opls_185-110    H    0.64436005    0.67362983    0.54942950    0.04850000
opls_185-111    H    0.65728978    0.69002978    0.95694052    0.05870000
opls_185-112    H    0.63256992    0.74503991    0.88275894    0.05870000
opls_185-113    H    0.61831994    0.72780988    0.47764893    0.05820000
opls_185-114    H    0.67131997    0.79831003    0.28263061    0.06960000
opls_185-115    H    0.72642994    0.82146978    0.42117974    0.10570000
opls_185-116    H    0.68457005    0.81678001    0.68655062    0.09640000
opls_146-117    H    0.28939984    0.70361981    0.55719019    0.07060000
opls_146-118    H    0.75600006    0.33414990    0.18389995    0.08220000
opls_146-119    H    0.83084003    0.37946992    0.98291061    0.12820000
opls_146-120    H    0.84697993    0.48580995    0.58127960    0.07230000
opls_146-121    H    0.77106013    0.44018002    0.77728959    0.12820000
opls_144-122    H    0.51343989    0.10286001    0.07200924    0.04820000
opls_146-123    H    0.96478994    0.41906986    0.97571925    0.11670000
opls_190-124    H    0.39679994    0.98932988    0.68281028    0.02560000
opls_190-125    H    0.38563013    0.98711999    0.10864970    0.02560000
opls_185-126    H    0.32636991    0.97072978    0.54942950    0.04850000
opls_185-127    H    0.30996987    0.96725982    0.95694052    0.05870000
opls_185-128    H    0.25495974    0.88752971    0.88275894    0.05870000
opls_185-129    H    0.27218989    0.89050998    0.47764893    0.05820000
opls_185-130    H    0.20168995    0.87300996    0.28263061    0.06960000
opls_185-131    H    0.17852991    0.90495996    0.42117974    0.10580000
opls_185-132    H    0.18321993    0.86778994    0.68655062    0.09630000
opls_146-133    H    0.29638008    0.58577990    0.55719019    0.07060000
opls_146-134    H    0.66585003    0.42184991    0.18389995    0.08220000
opls_146-135    H    0.62053004    0.45137000    0.98291061    0.12820000
opls_146-136    H    0.51418990    0.36116999    0.58127960    0.07230000
opls_146-137    H    0.55981985    0.33087984    0.77728959    0.12820000
opls_144-138    H    0.89713998    0.41057978    0.07200924    0.04820000
opls_146-139    H    0.58093001    0.54571982    0.97571925    0.11670000
opls_190-140    H    0.01067003    0.40747003    0.68281028    0.02560000
opls_190-141    H    0.01288000    0.39851006    0.10864970    0.02560000
opls_185-142    H    0.02927015    0.35564006    0.54942950    0.04850000
opls_185-143    H    0.03273991    0.34271008    0.95694052    0.05870000
opls_185-144    H    0.11246989    0.36743006    0.88275894    0.05870000
opls_185-145    H    0.10949000    0.38167982    0.47764893    0.05820000
opls_185-146    H    0.12699008    0.32868001    0.28263061    0.06960000
opls_185-147    H    0.09503998    0.27356993    0.42117974    0.10570000
opls_185-148    H    0.13221001    0.31543006    0.68655062    0.09630000
opls_146-149    H    0.41421992    0.71059996    0.55719019    0.07060000
opls_146-150    H    0.42184981    0.75599981    0.18389995    0.08220000
opls_146-151    H    0.45137008    0.83083993    0.98291061    0.12820000
opls_146-152    H    0.36116983    0.84697994    0.58127960    0.07240000
opls_146-153    H    0.33087999    0.77105987    0.77728959    0.12820000
opls_144-154    H    0.41057986    0.51343979    0.07200924    0.04820000
opls_146-155    H    0.54572011    0.96479000    0.97571925    0.11670000
opls_190-156    H    0.40746996    0.39679990    0.68281028    0.02560000
opls_190-157    H    0.39851013    0.38563004    0.10864970    0.02560000
opls_185-158    H    0.35563979    0.32636984    0.54942950    0.04850000
opls_185-159    H    0.34271006    0.30996990    0.95694052    0.05870000
opls_185-160    H    0.36743008    0.25496009    0.88275894    0.05870000
opls_185-161    H    0.38167990    0.27218980    0.47764893    0.05820000
opls_185-162    H    0.32868003    0.20168997    0.28263061    0.06960000
opls_185-163    H    0.27356990    0.17852989    0.42117974    0.10570000
opls_185-164    H    0.31542995    0.18321999    0.68655062    0.09630000
opls_146-165    H    0.71060000    0.29637986    0.55719019    0.07060000
opls_146-166    H    0.24399978    0.66584977    0.18389995    0.08220000
opls_146-167    H    0.16915980    0.62052975    0.98291061    0.12820000
opls_146-168    H    0.15302007    0.51419005    0.58127960    0.07230000
opls_146-169    H    0.22893987    0.55981998    0.77728959    0.12820000
opls_144-170    H    0.48656011    0.89713999    0.07200924    0.04820000
opls_146-171    H    0.03520990    0.58092982    0.97571925    0.11670000
opls_190-172    H    0.60320006    0.01067012    0.68281028    0.02560000
opls_190-173    H    0.61436987    0.01288001    0.10864970    0.02560000
opls_185-174    H    0.67362992    0.02926990    0.54942950    0.04850000
opls_185-175    H    0.69002997    0.03273985    0.95694052    0.05870000
opls_185-176    H    0.74504009    0.11246997    0.88275894    0.05870000
opls_185-177    H    0.72781011    0.10949002    0.47764893    0.05820000
opls_185-178    H    0.79831005    0.12699004    0.28263061    0.06960000
opls_185-179    H    0.82147009    0.09504004    0.42117974    0.10570000
opls_185-180    H    0.81678007    0.13221006    0.68655062    0.09630000
opls_146-181    H    0.70361976    0.41421977    0.55719019    0.07060000
opls_146-182    H    0.33414980    0.57814976    0.18389995    0.08220000
opls_146-183    H    0.37946996    0.54863000    0.98291061    0.12820000
opls_146-184    H    0.48581010    0.63883001    0.58127960    0.07230000
opls_146-185    H    0.44017998    0.66911983    0.77728959    0.12820000
opls_144-186    H    0.10285986    0.58941990    0.07200924    0.04820000
opls_146-187    H    0.41906983    0.45427986    0.97571925    0.11670000
opls_190-188    H    0.98932997    0.59252997    0.68281028    0.02560000
opls_190-189    H    0.98712000    0.60148994    0.10864970    0.02560000
opls_185-190    H    0.97072985    0.64435994    0.54942950    0.04850000
opls_185-191    H    0.96726009    0.65728992    0.95694052    0.05870000
opls_185-192    H    0.88753011    0.63256994    0.88275894    0.05870000
opls_185-193    H    0.89050984    0.61831986    0.47764893    0.05820000
opls_185-194    H    0.87300992    0.67131999    0.28263061    0.06960000
opls_185-195    H    0.90495985    0.72642975    0.42117974    0.10570000
opls_185-196    H    0.86778999    0.68456994    0.68655062    0.09630000
opls_146-197    H    0.58578008    0.28940004    0.55719019    0.07060000
opls_179-198    O    0.53682005    0.59009001    0.94956950    -0.16550000
opls_186-199    O    0.59068996    0.65853993    0.84265114    -0.22780000
opls_180-200    O    0.68528001    0.75922996    0.58018993    -0.21630000
opls_179-201    O    0.40990999    0.94672988    0.94956950    -0.16550000
opls_186-202    O    0.34145990    0.93214977    0.84265114    -0.22780000
opls_180-203    O    0.24077012    0.92605001    0.58018993    -0.21630000
opls_179-204    O    0.05326979    0.46317979    0.94956950    -0.16550000
opls_186-205    O    0.06784998    0.40930998    0.84265114    -0.22780000
opls_180-206    O    0.07395015    0.31472003    0.58018993    -0.21630000
opls_179-207    O    0.46317995    0.40990999    0.94956950    -0.16550000
opls_186-208    O    0.40931004    0.34146007    0.84265114    -0.22780000
opls_180-209    O    0.31471999    0.24077004    0.58018993    -0.21630000
opls_179-210    O    0.59009001    0.05327012    0.94956950    -0.16550000
opls_186-211    O    0.65853994    0.06784991    0.84265114    -0.22780000
opls_180-212    O    0.75922988    0.07394999    0.58018993    -0.21630000
opls_179-213    O    0.94673005    0.53681988    0.94956950    -0.16550000
opls_186-214    O    0.93215002    0.59069002    0.84265114    -0.22780000
opls_180-215    O    0.92604985    0.68527997    0.58018993    -0.21630000
