#======================================================================
# Crystal Data Generated By AuToFF
#----------------------------------------------------------------------

data_AuToFF_phase_1

_cell_length_a                         25.8300
_cell_length_b                         25.8300
_cell_length_c                         4.1000
_cell_angle_alpha                      90.00
_cell_angle_beta                       90.00
_cell_angle_gamma                      120.00
_symmetry_space_group_name_H-M_alt     'P 1'
_symmetry_space_group_IT_number        1

loop_
_space_group_symop_operation_xyz
   'x, y, z'

loop_
   _atom_site_label
   _atom_site_type_symbol
   _atom_site_fract_x
   _atom_site_fract_y
   _atom_site_fract_z
   _atom_site_charge
opls_526-0    H    0.10445977    0.87202988    0.70792927    0.11150000
opls_146-1    H    0.21073968    0.93069965    0.79257073    0.15090000
opls_146-2    H    0.20631001    0.09535017    0.71397073    0.07160000
opls_526-3    H    0.10024994    0.04065010    0.61931951    0.13050000
opls_526-4    H    0.91235985    0.74402980    0.67451951    0.10570000
opls_146-5    H    0.93861995    0.66996000    0.51728049    0.11470000
opls_146-6    H    0.10037980    0.80727993    0.05639024    0.09370000
opls_526-7    H    0.07340985    0.88393004    0.19466098    0.13010000
opls_526-8    H    0.65694995    0.69281976    0.42338049    0.11610000
opls_146-9    H    0.61876994    0.58846981    0.50992927    0.06920000
opls_146-10    H    0.76616024    0.59438010    0.97720000    0.09640000
opls_526-11    H    0.80875975    0.69968984    0.88765122    0.11490000
opls_526-12    H    0.69191982    0.87529996    0.30723902    0.13330000
opls_146-13    H    0.59095992    0.85372008    0.17770976    0.09400000
opls_146-14    H    0.54940983    0.68236979    0.77296098    0.15090000
opls_526-15    H    0.64390004    0.69838002    0.89267073    0.11660000
opls_526-16    H    0.91592976    0.17083977    0.14469024    0.05540000
opls_146-17    H    0.84812989    0.20181998    0.29252927    0.11580000
opls_146-18    H    0.72070992    0.02788984    0.67143902    0.09640000
opls_526-19    H    0.78595990    0.99052994    0.54330976    0.07700000
opls_526-20    H    0.06182993    0.12437996    0.88645122    0.08590000
opls_146-21    H    0.12237012    0.23226017    0.84103902    0.12400000
opls_146-22    H    0.00929003    0.25382978    0.54580976    0.07380000
opls_526-23    H    0.95102978    0.14162983    0.61707073    0.11400000
opls_144-24    H    0.65752010    0.06074984    0.58122927    0.06800000
opls_144-25    H    0.16198987    0.32752988    0.76683902    0.08400000
opls_144-26    H    0.27360994    0.11828995    0.10853902    0.08020000
opls_144-27    H    0.11869988    0.73893982    0.97671951    0.07560000
opls_144-28    H    0.72704003    0.50511993    0.10997073    0.06870000
opls_144-29    H    0.47823981    0.78640994    0.25869024    0.09310000
opls_146-30    H    0.39144974    0.07671985    0.83577073    0.06720000
opls_146-31    H    0.49558010    0.13444011    0.98630000    0.09610000
opls_146-32    H    0.45715981    0.25211986    0.55978049    0.13440000
opls_146-33    H    0.35505992    0.19646983    0.39658049    0.06740000
opls_146-34    H    0.22440003    0.42139008    0.49981951    0.07190000
opls_146-35    H    0.25749024    0.52598009    0.39313902    0.11470000
opls_146-36    H    0.13053983    0.51970993    0.10086098    0.11800000
opls_146-37    H    0.09407998    0.41449987    0.18763902    0.12400000
opls_146-38    H    0.64344989    0.29625015    0.99010976    0.13020000
opls_146-39    H    0.70091010    0.40426001    0.93173902    0.09400000
opls_146-40    H    0.58550997    0.42112990    0.63860000    0.11800000
opls_146-41    H    0.53348968    0.31432973    0.72470976    0.06870000
opls_146-42    H    0.50645004    0.11021018    0.47581951    0.06720000
opls_146-43    H    0.56331018    0.06139000    0.54878049    0.06720000
opls_146-44    H    0.72639003    0.23238981    0.56720000    0.08610000
opls_146-45    H    0.67076006    0.28221002    0.49929024    0.11280000
opls_146-46    H    0.30735989    0.56813984    0.88653902    0.11280000
opls_146-47    H    0.40845970    0.63567975    0.03093902    0.11520000
opls_146-48    H    0.38181989    0.78651008    0.88781951    0.09790000
opls_146-49    H    0.27976988    0.72001981    0.74482927    0.06920000
opls_146-50    H    0.25836007    0.68671008    0.27673902    0.11890000
opls_146-51    H    0.20345990    0.72973977    0.03479024    0.07490000
opls_146-52    H    0.04332013    0.59603012    0.51838049    0.07950000
opls_146-53    H    0.09777998    0.55240006    0.75219024    0.09640000
opls_521-54    C    0.85598984    0.85345006    0.98527073    0.07770000
opls_521-55    C    0.91327996    0.87782975    0.87310976    0.07740000
opls_521-56    C    0.95172007    0.93752995    0.88838049    0.07700000
opls_521-57    C    0.93199977    0.97389966    0.01361951    0.07680000
opls_521-58    C    0.87414989    0.94993974    0.11287073    0.07680000
opls_521-59    C    0.83536008    0.88929003    0.09555122    0.07680000
opls_521-60    C    0.95046008    0.06697977    0.17840976    0.09320000
opls_521-61    C    0.89128024    0.04509009    0.23698049    0.08670000
opls_521-62    C    0.74121975    0.80658970    0.13690976    0.08860000
opls_521-63    C    0.76475000    0.77050968    0.08806098    0.09020000
opls_521-64    C    0.98564980    0.86474986    0.62576098    0.09840000
opls_521-65    C    0.02698979    0.92270973    0.68426098    0.08630000
opls_700-66    C    0.85905980    0.07416994    0.32737073    0.04390000
opls_700-67    C    0.99733023    0.12578008    0.23274878    0.02940000
opls_700-68    C    0.68002004    0.78968003    0.12097073    0.03100000
opls_700-69    C    0.73772983    0.70805975    0.13909024    0.03100000
opls_700-70    C    0.09037980    0.95103990    0.65457073    0.04640000
opls_700-71    C    0.99313014    0.82105006    0.46369024    0.03340000
opls_523-72    C    0.12516013    0.92120992    0.68770976    -0.08320000
opls_145-73    C    0.18581987    0.95436989    0.74883902    -0.15650000
opls_145-74    C    0.21651988    0.01705988    0.76981951    0.21740000
opls_145-75    C    0.18402997    0.04633017    0.70890976    -0.13950000
opls_523-76    C    0.12385977    0.01518992    0.64722927    -0.11140000
opls_523-77    C    0.95278994    0.75852994    0.52528049    -0.14230000
opls_145-78    C    0.96812991    0.71660980    0.44063902    -0.14720000
opls_145-79    C    0.02204989    0.73294995    0.28063902    0.21740000
opls_145-80    C    0.05820010    0.79328986    0.18503902    -0.15500000
opls_523-81    C    0.04341993    0.83646976    0.25998049    -0.14860000
opls_523-82    C    0.68390017    0.67385996    0.32472927    -0.08460000
opls_145-83    C    0.66093012    0.61360007    0.37396098    -0.15010000
opls_145-84    C    0.68845990    0.58267976    0.25267073    0.21680000
opls_145-85    C    0.74230999    0.61586969    0.07940000    -0.15120000
opls_523-86    C    0.76652987    0.67611974    0.02543902    -0.16340000
opls_523-87    C    0.66035010    0.83161000    0.19731951    -0.08480000
opls_145-88    C    0.60383985    0.82018996    0.11710000    -0.15000000
opls_145-89    C    0.56316985    0.76646979    0.96142927    0.23540000
opls_145-90    C    0.58122995    0.72502977    0.88985122    -0.14320000
opls_523-91    C    0.63672985    0.73467999    0.97178049    -0.11780000
opls_523-92    C    0.87459997    0.13564980    0.26358049    -0.08550000
opls_145-93    C    0.83561994    0.15528015    0.34962927    -0.15000000
opls_145-94    C    0.77958990    0.11793009    0.49144878    0.23620000
opls_145-95    C    0.76379998    0.05874979    0.55751951    -0.16230000
opls_523-96    C    0.80146006    0.03759996    0.48198049    -0.08460000
opls_523-97    C    0.05146009    0.15244011    0.04505122    -0.15500000
opls_145-98    C    0.08447993    0.21376977    0.01189024    -0.15560000
opls_145-99    C    0.06830015    0.25151010    0.17566098    0.21390000
opls_145-100    C    0.02102993    0.22523988    0.40228049    -0.15930000
opls_523-101    C    0.98893980    0.16401975    0.44632927    -0.11750000
opls_142-102    C    0.68360012    0.11011004    0.58061951    0.07740000
opls_142-103    C    0.13889993    0.34555984    0.91183902    0.07850000
opls_142-104    C    0.30011000    0.09855991    0.02149024    0.09100000
opls_142-105    C    0.08985008    0.69965989    0.12681951    0.09060000
opls_142-106    C    0.68255994    0.48676990    0.22310000    0.07910000
opls_142-107    C    0.46648984    0.75785000    0.04247073    0.12850000
opls_700-108    C    0.15630979    0.40772992    0.85547073    0.06790000
opls_700-109    C    0.36300981    0.13065995    0.10462927    0.03270000
opls_145-110    C    0.40500008    0.11523981    0.99801951    -0.11690000
opls_145-111    C    0.46489971    0.14820979    0.08579024    -0.16380000
opls_916-112    C    0.48706008    0.19841981    0.29208049    0.17890000
opls_145-113    C    0.44502003    0.21453018    0.39388049    -0.15500000
opls_145-114    C    0.38522017    0.18143995    0.30325122    -0.11740000
opls_145-115    C    0.20237003    0.44180006    0.63472927    -0.11640000
opls_145-116    C    0.22184992    0.50173004    0.57404878    -0.16130000
opls_916-117    C    0.19734001    0.53221002    0.73889024    0.18340000
opls_145-118    C    0.15028972    0.49814971    0.95585122    -0.16630000
opls_145-119    C    0.13022985    0.43775973    0.00886098    -0.11450000
opls_916-120    C    0.18464004    0.61686971    0.54415122    0.18490000
opls_916-121    C    0.28305997    0.63656980    0.77844878    0.20460000
opls_916-122    C    0.58145990    0.29542000    0.34980000    0.19700000
opls_916-123    C    0.58275975    0.20133986    0.45178049    0.18250000
opls_145-124    C    0.63041014    0.32370994    0.13537073    -0.16550000
opls_145-125    C    0.66300993    0.38542985    0.10279024    -0.11730000
opls_700-126    C    0.64730981    0.42253986    0.27363902    0.07490000
opls_145-127    C    0.59889991    0.39454005    0.48840976    -0.11680000
opls_145-128    C    0.56718992    0.33274995    0.52990976    -0.16360000
opls_145-129    C    0.55526997    0.13891005    0.48590000    -0.16710000
opls_145-130    C    0.58825986    0.11041984    0.53412927    -0.11730000
opls_700-131    C    0.65073993    0.14188017    0.55261951    0.08220000
opls_145-132    C    0.67770991    0.20425992    0.54511951    -0.11270000
opls_145-133    C    0.64513003    0.23308004    0.49822927    -0.16530000
opls_145-134    C    0.32204002    0.61604984    0.87407073    -0.16180000
opls_145-135    C    0.38069002    0.65526003    0.96381951    -0.11270000
opls_700-136    C    0.40447001    0.71723968    0.96889024    0.06620000
opls_145-137    C    0.36579001    0.73814990    0.88670000    -0.10980000
opls_145-138    C    0.30736004    0.69930003    0.79070976    -0.17180000
opls_145-139    C    0.21068997    0.66611010    0.33240000    -0.14970000
opls_145-140    C    0.17896979    0.69091984    0.19551951    -0.10680000
opls_700-141    C    0.11849002    0.66821968    0.26131951    0.08280000
opls_145-142    C    0.09108990    0.61701992    0.45882927    -0.11520000
opls_145-143    C    0.12270991    0.59139970    0.59330000    -0.16990000
opls_520-144    N    0.97080998    0.03183987    0.04078049    -0.25790000
opls_520-145    N    0.85288000    0.98386996    0.22033902    -0.25870000
opls_520-146    N    0.77825979    0.86774993    0.17018049    -0.26030000
opls_520-147    N    0.82280982    0.79447988    0.98421951    -0.30350000
opls_520-148    N    0.92848000    0.84073003    0.74169024    -0.24900000
opls_520-149    N    0.00847997    0.96118991    0.79899024    -0.25950000
opls_750-150    N    0.74128997    0.14061014    0.55349024    -0.27010000
opls_750-151    N    0.09618013    0.31352014    0.11557073    -0.26770000
opls_750-152    N    0.27737011    0.04907007    0.85679024    -0.25940000
opls_750-153    N    0.03929009    0.68950005    0.24474878    -0.26630000
opls_750-154    N    0.66097996    0.52052979    0.30650976    -0.25920000
opls_750-155    N    0.50449982    0.74995977    0.87858049    -0.23930000
opls_239-156    N    0.22128020    0.59533006    0.68977073    -0.13450000
opls_239-157    N    0.54949008    0.23143002    0.38174878    -0.13700000
