#======================================================================
# Crystal Data Generated By AuToFF
#----------------------------------------------------------------------

data_AuToFF_phase_1

_cell_length_a                         26.4646
_cell_length_b                         3.6192
_cell_length_c                         26.1299
_cell_angle_alpha                      90.00
_cell_angle_beta                       120.00
_cell_angle_gamma                      90.00
_symmetry_space_group_name_H-M_alt     'P 1'
_symmetry_space_group_IT_number        1

loop_
_space_group_symop_operation_xyz
   'x, y, z'

loop_
   _atom_site_label
   _atom_site_type_symbol
   _atom_site_fract_x
   _atom_site_fract_y
   _atom_site_fract_z
   _atom_site_charge
opls_145-0    C    0.40274987    0.50000000    0.55218002    0.03150000
opls_700-1    C    0.36596018    0.50000000    0.58028005    0.05850000
opls_145-2    C    0.30524011    0.50000000    0.54636009    -0.19490000
opls_145-3    C    0.27055999    0.50000000    0.57262002    -0.19490000
opls_700-4    C    0.29598999    0.50000000    0.63338984    0.09870000
opls_145-5    C    0.35647003    0.50000000    0.66755991    -0.19490000
opls_145-6    C    0.39111991    0.50000000    0.64115990    -0.19490000
opls_142-7    C    0.25833005    0.50000000    0.65978985    -0.23460000
opls_142-8    C    0.27350992    0.50000000    0.71180989    -0.23340000
opls_700-9    C    0.23611989    0.50000000    0.73949983    0.02900000
opls_700-10    C    0.26292985    0.50000000    0.80118970    -0.08270000
opls_521-11    C    0.22910007    0.50000000    0.82913992    0.15070000
opls_521-12    C    0.14220984    0.50000000    0.73533971    0.15590000
opls_700-13    C    0.17516980    0.50000000    0.70654987    -0.08360000
opls_142-14    C    0.25465983    0.50000000    0.89427977    -0.23520000
opls_142-15    C    0.07752993    0.50000000    0.70057969    -0.19490000
opls_145-16    C    0.45912975    0.50000000    0.58257973    -0.23300000
opls_145-17    C    0.49324004    0.50000000    0.55567993    -0.23300000
opls_145-18    C    0.47193983    0.50000000    0.49779974    0.03150000
opls_145-19    C    0.41577987    0.50000000    0.46771997    -0.23300000
opls_145-20    C    0.38163009    0.50000000    0.49451990    -0.23300000
opls_700-21    C    0.50768020    0.50000000    0.46856003    0.07020000
opls_145-22    C    0.48089988    0.50000000    0.40762980    -0.09670000
opls_700-23    C    0.51331996    0.50000000    0.37842987    0.05910000
opls_145-24    C    0.57462998    0.50000000    0.41267992    -0.19980000
opls_700-25    C    0.60284004    0.50000000    0.47452004    0.05260000
opls_145-26    C    0.56851003    0.50000000    0.50130009    -0.10160000
opls_145-27    C    0.66785976    0.50000000    0.51168978    0.03390000
opls_145-28    C    0.48248002    0.50000000    0.31240002    0.03090000
opls_145-29    C    0.69498974    0.50000000    0.56963979    -0.22950000
opls_145-30    C    0.75570011    0.50000000    0.60464993    -0.22740000
opls_145-31    C    0.79107988    0.50000000    0.58236983    0.03340000
opls_145-32    C    0.76435009    0.50000000    0.52452013    -0.22710000
opls_145-33    C    0.70352993    0.50000000    0.48978972    -0.22820000
opls_145-34    C    0.50909987    0.50000000    0.28261986    -0.23340000
opls_145-35    C    0.48007987    0.50000000    0.22080007    -0.23300000
opls_145-36    C    0.42346989    0.50000000    0.18696982    0.02970000
opls_145-37    C    0.39672988    0.50000000    0.21660990    -0.23340000
opls_145-38    C    0.42586994    0.50000000    0.27821978    -0.23350000
opls_145-39    C    0.85559979    0.50000000    0.61890985    0.07260000
opls_700-40    C    0.39263987    0.50000000    0.12114988    0.05560000
opls_145-41    C    0.88869006    0.50000000    0.59366985    -0.21810000
opls_145-42    C    0.94935978    0.50000000    0.62771972    -0.21920000
opls_145-43    C    0.97858977    0.50000000    0.68772990    0.09420000
opls_145-44    C    0.94544982    0.50000000    0.71334994    -0.21950000
opls_145-45    C    0.88454998    0.50000000    0.67930007    -0.21970000
opls_145-46    C    0.33162988    0.50000000    0.08767979    -0.14290000
opls_145-47    C    0.30275979    0.50000000    0.02584983    -0.14710000
opls_700-48    C    0.33451011    0.50000000    0.99639006    0.08210000
opls_145-49    C    0.39520996    0.50000000    0.02945005    -0.15200000
opls_145-50    C    0.42394996    0.50000000    0.09110988    -0.14820000
opls_142-51    C    0.04322010    0.50000000    0.72431986    -0.14680000
opls_142-52    C    0.30652021    0.50000000    0.93154010    -0.23350000
opls_423-53    C    0.32359997    0.50000000    0.83423998    0.26370000
opls_423-54    C    0.14667994    0.50000000    0.64458999    0.26260000
opls_520-55    N    0.17012996    0.50000000    0.79528979    -0.33510000
opls_262-56    N    0.37204003    0.50000000    0.86054984    -0.34540000
opls_262-57    N    0.12376987    0.50000000    0.59507998    -0.34360000
opls_146-58    H    0.28459978    0.50000000    0.49965973    0.20940000
opls_146-59    H    0.22388990    0.50000000    0.54579976    0.09100000
opls_146-60    H    0.37665009    0.50000000    0.71433982    0.20960000
opls_146-61    H    0.43743991    0.50000000    0.66824001    0.20460000
opls_144-62    H    0.21657997    0.50000000    0.63452996    0.20920000
opls_144-63    H    0.31580006    0.50000000    0.73631986    0.20900000
opls_144-64    H    0.22901998    0.50000000    0.91135994    0.20880000
opls_144-65    H    0.05744010    0.50000000    0.65357000    0.09300000
opls_146-66    H    0.47612988    0.50000000    0.62643996    0.20910000
opls_146-67    H    0.53549985    0.50000000    0.57951996    0.20880000
opls_146-68    H    0.39867992    0.50000000    0.42391012    0.20910000
opls_146-69    H    0.33922991    0.50000000    0.47059988    0.20900000
opls_146-70    H    0.43441990    0.50000000    0.38292981    0.20450000
opls_146-71    H    0.60044994    0.50000000    0.39133004    0.10840000
opls_146-72    H    0.58919990    0.50000000    0.54784977    0.20860000
opls_146-73    H    0.66939005    0.50000000    0.58752998    0.20910000
opls_146-74    H    0.77506006    0.50000000    0.64845977    0.20920000
opls_146-75    H    0.79060970    0.50000000    0.50658973    0.20920000
opls_146-76    H    0.68467000    0.50000000    0.44629010    0.20840000
opls_146-77    H    0.55162002    0.50000000    0.30677984    0.20870000
opls_146-78    H    0.50135998    0.50000000    0.19955005    0.20910000
opls_146-79    H    0.35409014    0.50000000    0.19217019    0.20920000
opls_146-80    H    0.40457991    0.50000000    0.29877998    0.20920000
opls_146-81    H    0.86747005    0.50000000    0.54776006    0.20870000
opls_146-82    H    0.97298003    0.50000000    0.60703004    0.20840000
opls_146-83    H    0.96684991    0.50000000    0.75944003    0.20880000
opls_146-84    H    0.86013019    0.50000000    0.69979001    0.20870000
opls_146-85    H    0.30625989    0.50000000    0.10924002    0.20790000
opls_146-86    H    0.25604990    0.50000000    0.00117017    0.20790000
opls_146-87    H    0.42030006    0.50000000    0.00726010    0.09390000
opls_146-88    H    0.47064013    0.50000000    0.11518015    0.07620000
opls_144-89    H    0.06292974    0.50000000    0.77185985    0.10040000
opls_144-90    H    0.33129994    0.50000000    0.91444976    0.20920000
