#======================================================================
# Crystal Data Generated By AuToFF
#----------------------------------------------------------------------

data_AuToFF_phase_1

_cell_length_a                         22.9008
_cell_length_b                         20.2376
_cell_length_c                         5.6036
_cell_angle_alpha                      90.00
_cell_angle_beta                       90.02
_cell_angle_gamma                      90.00
_symmetry_space_group_name_H-M_alt     'P 1'
_symmetry_space_group_IT_number        1

loop_
_space_group_symop_operation_xyz
   'x, y, z'

loop_
   _atom_site_label
   _atom_site_type_symbol
   _atom_site_fract_x
   _atom_site_fract_y
   _atom_site_fract_z
   _atom_site_charge
opls_145-0    C    0.29074016    0.80349004    0.96825969    -0.13430000
opls_145-1    C    0.34119006    0.84123019    0.95349061    -0.07460000
opls_145-2    C    0.39296993    0.76077005    0.19542972    -0.09330000
opls_145-3    C    0.34242999    0.72340001    0.21466914    -0.13430000
opls_145-4    C    0.29091019    0.74346019    0.09670034    0.23520000
opls_700-5    C    0.39321991    0.17942987    0.06618959    0.07470000
opls_700-6    C    0.05381017    0.57500000    0.99231922    0.08240000
opls_145-7    C    0.06200985    0.61663982    0.79401992    -0.09330000
opls_145-8    C    0.11080999    0.65719008    0.77879934    -0.09340000
opls_145-9    C    0.09402992    0.57780023    0.18152081    -0.09340000
opls_700-10    C    0.15202990    0.34154989    0.96500999    0.06360000
opls_145-11    C    0.14251011    0.38106001    0.16784032    -0.09330000
opls_142-12    C    0.20446004    0.30087016    0.94420016    0.12610000
opls_700-13    C    0.55267003    0.85903022    0.95929046    0.03610000
opls_700-14    C    0.55243984    0.92954006    0.94738918    0.04100000
opls_145-15    C    0.60235999    0.96606020    0.87122921    -0.07470000
opls_145-16    C    0.70925984    0.80349004    0.03174031    -0.13430000
opls_145-17    C    0.65880994    0.84123019    0.04650939    -0.07470000
opls_145-18    C    0.60703007    0.76077005    0.80457028    -0.09330000
opls_145-19    C    0.65757001    0.72340001    0.78532907    -0.13430000
opls_145-20    C    0.70909025    0.74346019    0.90329966    0.23520000
opls_700-21    C    0.60678009    0.17942987    0.93381041    0.07460000
opls_700-22    C    0.94618983    0.57500000    0.00768078    0.08240000
opls_145-23    C    0.93799015    0.61663982    0.20598008    -0.09340000
opls_145-24    C    0.88919001    0.65719008    0.22120066    -0.09340000
opls_145-25    C    0.90597008    0.57780023    0.81847919    -0.09340000
opls_700-26    C    0.84797010    0.34154989    0.03499001    0.06360000
opls_145-27    C    0.85748989    0.38106001    0.83215968    -0.09330000
opls_142-28    C    0.79553996    0.30087016    0.05579984    0.12610000
opls_700-29    C    0.44732997    0.85903022    0.04070954    0.03610000
opls_700-30    C    0.44756016    0.92954006    0.05261082    0.04100000
opls_145-31    C    0.39764001    0.96606020    0.12877079    -0.07470000
opls_145-32    C    0.70925984    0.19650996    0.03174031    -0.13430000
opls_145-33    C    0.65880994    0.15876981    0.04650939    -0.07470000
opls_145-34    C    0.60703007    0.23922995    0.80457028    -0.09330000
opls_145-35    C    0.65757001    0.27659999    0.78532907    -0.13430000
opls_145-36    C    0.70909025    0.25653981    0.90329966    0.23530000
opls_700-37    C    0.60678009    0.82057013    0.93381041    0.07460000
opls_700-38    C    0.94618983    0.42500000    0.00768078    0.08240000
opls_145-39    C    0.93799015    0.38336018    0.20598008    -0.09340000
opls_145-40    C    0.88919001    0.34280992    0.22120066    -0.09330000
opls_145-41    C    0.90597008    0.42219977    0.81847919    -0.09340000
opls_700-42    C    0.84797010    0.65845011    0.03499001    0.06370000
opls_145-43    C    0.85748989    0.61893999    0.83215968    -0.09330000
opls_142-44    C    0.79553996    0.69912984    0.05579984    0.12610000
opls_700-45    C    0.44732997    0.14096978    0.04070954    0.03610000
opls_700-46    C    0.44756016    0.07045994    0.05261082    0.04100000
opls_145-47    C    0.39764001    0.03393980    0.12877079    -0.07470000
opls_145-48    C    0.29074016    0.19650996    0.96825969    -0.13430000
opls_145-49    C    0.34119006    0.15876981    0.95349061    -0.07470000
opls_145-50    C    0.39296993    0.23922995    0.19542972    -0.09330000
opls_145-51    C    0.34242999    0.27659999    0.21466914    -0.13430000
opls_145-52    C    0.29091019    0.25653981    0.09670034    0.23550000
opls_700-53    C    0.39321991    0.82057013    0.06618959    0.07460000
opls_700-54    C    0.05381017    0.42500000    0.99231922    0.08250000
opls_145-55    C    0.06200985    0.38336018    0.79401992    -0.09340000
opls_145-56    C    0.11080999    0.34280992    0.77879934    -0.09340000
opls_145-57    C    0.09402992    0.42219977    0.18152081    -0.09340000
opls_700-58    C    0.15202990    0.65845011    0.96500999    0.06370000
opls_145-59    C    0.14251011    0.61893999    0.16784032    -0.09330000
opls_142-60    C    0.20446004    0.69912984    0.94420016    0.12610000
opls_700-61    C    0.55267003    0.14096978    0.95929046    0.03610000
opls_700-62    C    0.55243984    0.07045994    0.94738918    0.04100000
opls_145-63    C    0.60235999    0.03393980    0.87122921    -0.07470000
opls_141-64    C    0.00000000    0.53362009    0.00000000    -0.02280000
opls_141-65    C    0.00000000    0.46637991    0.00000000    -0.02270000
opls_700-66    C    0.50000000    0.03532978    0.00000000    0.00130000
opls_145-67    C    0.50000000    0.17441001    0.00000000    -0.13820000
opls_700-68    C    0.50000000    0.96467022    0.00000000    0.00130000
opls_145-69    C    0.50000000    0.82558999    0.00000000    -0.13820000
opls_750-70    N    0.24132013    0.29618977    0.11754943    -0.23640000
opls_750-71    N    0.75867987    0.29618977    0.88245057    -0.23630000
opls_750-72    N    0.75867987    0.70381023    0.88245057    -0.23640000
opls_750-73    N    0.24132013    0.70381023    0.11754943    -0.23640000
opls_146-74    H    0.24905005    0.82092985    0.87660076    0.04990000
opls_146-75    H    0.34098004    0.88961982    0.84932008    0.04980000
opls_146-76    H    0.43495022    0.74325019    0.28464915    0.04980000
opls_146-77    H    0.34236985    0.67626991    0.32609037    0.04990000
opls_146-78    H    0.02843009    0.61732024    0.64383075    0.04980000
opls_146-79    H    0.11760983    0.68964996    0.61489043    0.04980000
opls_146-80    H    0.08699008    0.54621002    0.34748019    0.04980000
opls_146-81    H    0.17470995    0.37951980    0.32292990    0.04980000
opls_144-82    H    0.21251015    0.27293997    0.77062960    0.02940000
opls_146-83    H    0.64321998    0.93892013    0.80889071    0.04980000
opls_146-84    H    0.75094995    0.82092985    0.12339924    0.04980000
opls_146-85    H    0.65901996    0.88961982    0.15067992    0.04990000
opls_146-86    H    0.56505021    0.74325019    0.71535085    0.04980000
opls_146-87    H    0.65763015    0.67626991    0.67390963    0.04980000
opls_146-88    H    0.97156991    0.61732024    0.35616925    0.04980000
opls_146-89    H    0.88239017    0.68964996    0.38510957    0.04980000
opls_146-90    H    0.91300992    0.54621002    0.65251981    0.04980000
opls_146-91    H    0.82529005    0.37951980    0.67707010    0.04980000
opls_144-92    H    0.78748985    0.27293997    0.22937040    0.02940000
opls_146-93    H    0.35678002    0.93892013    0.19110929    0.04990000
opls_146-94    H    0.75094995    0.17907015    0.12339924    0.04980000
opls_146-95    H    0.65901996    0.11038018    0.15067992    0.04980000
opls_146-96    H    0.56505021    0.25674981    0.71535085    0.04980000
opls_146-97    H    0.65763015    0.32373009    0.67390963    0.04990000
opls_146-98    H    0.97156991    0.38267976    0.35616925    0.04980000
opls_146-99    H    0.88239017    0.31035004    0.38510957    0.04980000
opls_146-100    H    0.91300992    0.45378998    0.65251981    0.04980000
opls_146-101    H    0.82529005    0.62048020    0.67707010    0.04980000
opls_144-102    H    0.78748985    0.72706003    0.22937040    0.02940000
opls_146-103    H    0.35678002    0.06107987    0.19110929    0.04980000
opls_146-104    H    0.24905005    0.17907015    0.87660076    0.04990000
opls_146-105    H    0.34098004    0.11038018    0.84932008    0.04980000
opls_146-106    H    0.43495022    0.25674981    0.28464915    0.04980000
opls_146-107    H    0.34236985    0.32373009    0.32609037    0.04980000
opls_146-108    H    0.02843009    0.38267976    0.64383075    0.04980000
opls_146-109    H    0.11760983    0.31035004    0.61489043    0.04980000
opls_146-110    H    0.08699008    0.45378998    0.34748019    0.04980000
opls_146-111    H    0.17470995    0.62048020    0.32292990    0.04990000
opls_144-112    H    0.21251015    0.72706003    0.77062960    0.02940000
opls_146-113    H    0.64321998    0.06107987    0.80889071    0.04980000
opls_146-114    H    0.50000000    0.22871981    0.00000000    0.12790000
opls_146-115    H    0.50000000    0.77128019    0.00000000    0.12790000
