#======================================================================
# Crystal Data Generated By AuToFF
#----------------------------------------------------------------------

data_AuToFF_phase_1

_cell_length_a                         30.9114
_cell_length_b                         30.9114
_cell_length_c                         3.4348
_cell_angle_alpha                      90.00
_cell_angle_beta                       90.00
_cell_angle_gamma                      120.00
_symmetry_space_group_name_H-M_alt     'P 1'
_symmetry_space_group_IT_number        1

loop_
_space_group_symop_operation_xyz
   'x, y, z'

loop_
   _atom_site_label
   _atom_site_type_symbol
   _atom_site_fract_x
   _atom_site_fract_y
   _atom_site_fract_z
   _atom_site_charge
opls_526-0    H    0.44644000    0.40003982    0.00000000    0.05330000
opls_525-1    H    0.46699009    0.59165986    0.00000000    0.09260000
opls_526-2    H    0.36561012    0.40202002    0.00000000    0.11160000
opls_617-3    H    0.32100983    0.45087983    0.00000000    0.11200000
opls_526-4    H    0.52680004    0.40047986    0.00000000    0.09260000
opls_525-5    H    0.62147991    0.59026988    0.00000000    0.11190000
opls_526-6    H    0.66941995    0.54454977    0.00000000    0.11210000
opls_144-7    H    0.42475988    0.62901988    0.00000000    0.07380000
opls_910-8    H    0.32187006    0.52807988    0.00000000    0.28270000
opls_144-9    H    0.57146004    0.36585013    0.00000000    0.07380000
opls_910-10    H    0.67198003    0.46913007    0.00000000    0.28270000
opls_526-11    H    0.59996002    0.04639997    0.00000000    0.05330000
opls_525-12    H    0.40833977    0.87532975    0.00000000    0.09260000
opls_526-13    H    0.59797993    0.96358992    0.00000000    0.11160000
opls_617-14    H    0.54911997    0.87012991    0.00000000    0.11200000
opls_526-15    H    0.59951997    0.12631985    0.00000000    0.09260000
opls_525-16    H    0.40973008    0.03120987    0.00000000    0.11190000
opls_526-17    H    0.45544992    0.12487010    0.00000000    0.11210000
opls_144-18    H    0.37097997    0.79574009    0.00000000    0.07380000
opls_910-19    H    0.47191996    0.79378978    0.00000000    0.28270000
opls_144-20    H    0.63415003    0.20560992    0.00000000    0.07380000
opls_910-21    H    0.53087019    0.20285012    0.00000000    0.28270000
opls_526-22    H    0.95359980    0.55355984    0.00000000    0.05330000
opls_525-23    H    0.12466995    0.53301001    0.00000000    0.09260000
opls_526-24    H    0.03640995    0.63439006    0.00000000    0.11160000
opls_617-25    H    0.12987002    0.67898989    0.00000000    0.11200000
opls_526-26    H    0.87367980    0.47319991    0.00000000    0.09260000
opls_525-27    H    0.96878982    0.37851988    0.00000000    0.11190000
opls_526-28    H    0.87513013    0.33058013    0.00000000    0.11210000
opls_144-29    H    0.20426015    0.57524003    0.00000000    0.07380000
opls_910-30    H    0.20621012    0.67812997    0.00000000    0.28270000
opls_144-31    H    0.79438993    0.42853994    0.00000000    0.07380000
opls_910-32    H    0.79714978    0.32801981    0.00000000    0.28270000
opls_523-33    C    0.54847001    0.44164003    0.00000000    -0.14690000
opls_916-34    C    0.60252999    0.46880993    0.00000000    0.19500000
opls_523-35    C    0.62803996    0.52263013    0.00000000    -0.11860000
opls_522-36    C    0.60089975    0.54885981    0.00000000    -0.10950000
opls_522-37    C    0.44374003    0.55059981    0.00000000    -0.18750000
opls_523-38    C    0.38973000    0.52525994    0.00000000    0.19500000
opls_145-39    C    0.36240983    0.47141994    0.00000000    -0.11860000
opls_523-40    C    0.38777993    0.44340991    0.00000000    -0.09140000
opls_280-41    C    0.30131982    0.61026983    0.00000000    0.19200000
opls_700-42    C    0.35822018    0.63396010    0.00000000    -0.05530000
opls_142-43    C    0.38372981    0.60705990    0.00000000    0.06600000
opls_521-44    C    0.46926003    0.52263013    0.00000000    0.19730000
opls_700-45    C    0.44120991    0.46874008    0.00000000    0.03730000
opls_280-46    C    0.69679005    0.38985979    0.00000000    0.19200000
opls_700-47    C    0.63972020    0.36411013    0.00000000    -0.05530000
opls_142-48    C    0.61239006    0.38919001    0.00000000    0.06600000
opls_700-49    C    0.52110985    0.46795002    0.00000000    0.04470000
opls_521-50    C    0.54757984    0.52185987    0.00000000    0.17950000
opls_523-51    C    0.46751996    0.44151003    0.00000000    -0.06300000
opls_523-52    C    0.55836019    0.10683017    0.00000000    -0.14690000
opls_916-53    C    0.53118994    0.13371991    0.00000000    0.19500000
opls_523-54    C    0.47736997    0.10540992    0.00000000    -0.11860000
opls_522-55    C    0.45113979    0.05203985    0.00000000    -0.10940000
opls_522-56    C    0.44940000    0.89313995    0.00000000    -0.18740000
opls_523-57    C    0.47473996    0.86446986    0.00000000    0.19500000
opls_145-58    C    0.52857977    0.89098978    0.00000000    -0.11860000
opls_523-59    C    0.55659008    0.94436994    0.00000000    -0.09140000
opls_280-60    C    0.38973005    0.69105000    0.00000000    0.19200000
opls_700-61    C    0.36603982    0.72425986    0.00000000    -0.05530000
opls_142-62    C    0.39294005    0.77666991    0.00000000    0.06600000
opls_521-63    C    0.47737010    0.94662993    0.00000000    0.19730000
opls_700-64    C    0.53126013    0.97246999    0.00000000    0.03730000
opls_280-65    C    0.61013980    0.30692983    0.00000000    0.19200000
opls_700-66    C    0.63588992    0.27561014    0.00000000    -0.05530000
opls_142-67    C    0.61081005    0.22320010    0.00000000    0.06600000
opls_700-68    C    0.53205022    0.05316013    0.00000000    0.04470000
opls_521-69    C    0.47814020    0.02572015    0.00000000    0.17940000
opls_523-70    C    0.55849017    0.02601003    0.00000000    -0.06290000
opls_523-71    C    0.89316981    0.45152981    0.00000000    -0.14690000
opls_916-72    C    0.86627988    0.39746979    0.00000000    0.19520000
opls_523-73    C    0.89459006    0.37195994    0.00000000    -0.11860000
opls_522-74    C    0.94795995    0.39909996    0.00000000    -0.10950000
opls_522-75    C    0.10685979    0.55625987    0.00000000    -0.18750000
opls_523-76    C    0.13552985    0.61026983    0.00000000    0.19500000
opls_145-77    C    0.10900989    0.63758990    0.00000000    -0.11860000
opls_523-78    C    0.05562980    0.61221977    0.00000000    -0.09140000
opls_280-79    C    0.30894994    0.69867979    0.00000000    0.19210000
opls_700-80    C    0.27574001    0.64178003    0.00000000    -0.05530000
opls_142-81    C    0.22332995    0.61626982    0.00000000    0.06600000
opls_521-82    C    0.05336987    0.53073994    0.00000000    0.19730000
opls_700-83    C    0.02752996    0.55878993    0.00000000    0.03730000
opls_280-84    C    0.69306996    0.30321000    0.00000000    0.19210000
opls_700-85    C    0.72439007    0.36028010    0.00000000    -0.05530000
opls_142-86    C    0.77679989    0.38760989    0.00000000    0.06600000
opls_700-87    C    0.94683993    0.47888985    0.00000000    0.04470000
opls_521-88    C    0.97427996    0.45241998    0.00000000    0.17940000
opls_523-89    C    0.97398986    0.53247994    0.00000000    -0.06300000
opls_281-90    O    0.27439000    0.56394980    0.00000000    -0.42160000
opls_281-91    O    0.72218999    0.43630982    0.00000000    -0.42150000
opls_281-92    O    0.43605002    0.71043995    0.00000000    -0.42160000
opls_281-93    O    0.56368986    0.28587982    0.00000000    -0.42160000
opls_281-94    O    0.28955979    0.72560988    0.00000000    -0.42150000
opls_281-95    O    0.71411996    0.27780999    0.00000000    -0.42160000
opls_238-96    N    0.36114982    0.55202977    0.00000000    -0.33540000
opls_520-97    N    0.52123996    0.54750008    0.00000000    -0.30540000
opls_238-98    N    0.63292989    0.44395007    0.00000000    -0.33410000
opls_238-99    N    0.44796986    0.80911996    0.00000000    -0.33530000
opls_520-100    N    0.45250019    0.97374007    0.00000000    -0.30540000
opls_238-101    N    0.55605021    0.18898015    0.00000000    -0.33410000
opls_238-102    N    0.19087981    0.63884989    0.00000000    -0.33540000
opls_520-103    N    0.02625985    0.47875985    0.00000000    -0.30530000
opls_238-104    N    0.81102008    0.36707015    0.00000000    -0.33410000
