#======================================================================
# Crystal Data Generated By AuToFF
#----------------------------------------------------------------------

data_AuToFF_phase_1

_cell_length_a                         45.9000
_cell_length_b                         41.1000
_cell_length_c                         3.9400
_cell_angle_alpha                      90.00
_cell_angle_beta                       76.00
_cell_angle_gamma                      90.00
_symmetry_space_group_name_H-M_alt     'P 1'
_symmetry_space_group_IT_number        1

loop_
_space_group_symop_operation_xyz
   'x, y, z'

loop_
   _atom_site_label
   _atom_site_type_symbol
   _atom_site_fract_x
   _atom_site_fract_y
   _atom_site_fract_z
   _atom_site_charge
opls_700-0    C    0.53139007    0.53001995    0.83841882    0.02090000
opls_700-1    C    0.03139007    0.03001995    0.83841882    0.02090000
opls_700-2    C    0.46860998    0.53001995    0.16157856    0.02090000
opls_700-3    C    0.96860998    0.03001995    0.16157856    0.02090000
opls_700-4    C    0.46860998    0.46998005    0.16157856    0.02090000
opls_700-5    C    0.96860998    0.96998005    0.16157856    0.02090000
opls_700-6    C    0.53139007    0.46998005    0.83841882    0.02090000
opls_700-7    C    0.03139007    0.96998005    0.83841882    0.02090000
opls_145-8    C    0.48458010    0.55911995    0.06954017    -0.13570000
opls_145-9    C    0.98458010    0.05911995    0.06954017    -0.13570000
opls_145-10    C    0.51542012    0.55911995    0.93045983    -0.13570000
opls_145-11    C    0.01542012    0.05911995    0.93045983    -0.13570000
opls_145-12    C    0.51542012    0.44088005    0.93045983    -0.13570000
opls_145-13    C    0.01542012    0.94088005    0.93045983    -0.13570000
opls_145-14    C    0.48458010    0.44088005    0.06954017    -0.13570000
opls_145-15    C    0.98458010    0.94088005    0.06954017    -0.13570000
opls_700-16    C    0.43738012    0.52984988    0.32450948    0.02940000
opls_700-17    C    0.93738012    0.02984988    0.32450948    0.02940000
opls_700-18    C    0.56262016    0.52984988    0.67548791    0.02940000
opls_700-19    C    0.06262016    0.02984988    0.67548791    0.02940000
opls_700-20    C    0.56262016    0.47014988    0.67548791    0.02940000
opls_700-21    C    0.06262016    0.97015012    0.67548791    0.02940000
opls_700-22    C    0.43738012    0.47014988    0.32450948    0.02940000
opls_700-23    C    0.93738012    0.97015012    0.32450948    0.02940000
opls_700-24    C    0.41710001    0.55881995    0.34995828    0.06690000
opls_700-25    C    0.91710001    0.05881995    0.34995828    0.06690000
opls_700-26    C    0.58290005    0.55881995    0.65003911    0.06690000
opls_700-27    C    0.08290005    0.05881995    0.65003911    0.06690000
opls_700-28    C    0.58290005    0.44119002    0.65003911    0.06650000
opls_700-29    C    0.08290005    0.94119002    0.65003911    0.06650000
opls_700-30    C    0.41710001    0.44119002    0.34995828    0.06650000
opls_700-31    C    0.91710001    0.94119002    0.34995828    0.06660000
opls_145-32    C    0.39078004    0.55566010    0.22897904    -0.12120000
opls_145-33    C    0.89078004    0.05566010    0.22897904    -0.12120000
opls_145-34    C    0.60922001    0.55566010    0.77100788    -0.12120000
opls_145-35    C    0.10922001    0.05566010    0.77100788    -0.12110000
opls_145-36    C    0.60922001    0.44433990    0.77100788    -0.12120000
opls_145-37    C    0.10922001    0.94433990    0.77100788    -0.12120000
opls_145-38    C    0.39078004    0.44433990    0.22897904    -0.12120000
opls_145-39    C    0.89078004    0.94433990    0.22897904    -0.12120000
opls_145-40    C    0.37082995    0.58152993    0.24862868    -0.16990000
opls_145-41    C    0.87082995    0.08152993    0.24862868    -0.16990000
opls_145-42    C    0.62917011    0.58152993    0.75136870    -0.16990000
opls_145-43    C    0.12917011    0.08152993    0.75136870    -0.16990000
opls_145-44    C    0.62917011    0.41847007    0.75136870    -0.16990000
opls_145-45    C    0.12917011    0.91847007    0.75136870    -0.16990000
opls_145-46    C    0.37082995    0.41847007    0.24862868    -0.16990000
opls_145-47    C    0.87082995    0.91847007    0.24862868    -0.16990000
opls_145-48    C    0.37684006    0.61165012    0.38432946    0.18760000
opls_145-49    C    0.87684006    0.11165012    0.38432946    0.18760000
opls_145-50    C    0.62316000    0.61165012    0.61566792    0.18760000
opls_145-51    C    0.12316000    0.11165012    0.61566792    0.18760000
opls_145-52    C    0.62316000    0.38835012    0.61566792    0.18760000
opls_145-53    C    0.12316000    0.88834988    0.61566792    0.18760000
opls_145-54    C    0.37684006    0.38835012    0.38432946    0.18760000
opls_145-55    C    0.87684006    0.88834988    0.38432946    0.18760000
opls_145-56    C    0.40287013    0.61511995    0.50690955    -0.17900000
opls_145-57    C    0.90287013    0.11511995    0.50690955    -0.17900000
opls_145-58    C    0.59713009    0.61511995    0.49307999    -0.17900000
opls_145-59    C    0.09713009    0.11511995    0.49307999    -0.17900000
opls_145-60    C    0.59713009    0.38488005    0.49307999    -0.17900000
opls_145-61    C    0.09713009    0.88488005    0.49307999    -0.17900000
opls_145-62    C    0.40287013    0.38488005    0.50690955    -0.17900000
opls_145-63    C    0.90287013    0.88488005    0.50690955    -0.17900000
opls_145-64    C    0.42236999    0.58860998    0.50139813    -0.13200000
opls_145-65    C    0.92236999    0.08860998    0.50139813    -0.13200000
opls_145-66    C    0.57763007    0.58860998    0.49859926    -0.13200000
opls_145-67    C    0.07763007    0.08860998    0.49859926    -0.13200000
opls_145-68    C    0.57763007    0.41140000    0.49859926    -0.13050000
opls_145-69    C    0.07763007    0.91140000    0.49859926    -0.13050000
opls_145-70    C    0.42236999    0.41140000    0.50139813    -0.13050000
opls_145-71    C    0.92236999    0.91140000    0.50139813    -0.13050000
opls_700-72    C    0.18901011    0.83496010    0.66139938    0.06670000
opls_700-73    C    0.68901011    0.33496010    0.66139938    0.06680000
opls_700-74    C    0.81099011    0.83496010    0.33860062    0.06670000
opls_700-75    C    0.31099011    0.33496010    0.33860062    0.06680000
opls_700-76    C    0.81099011    0.16503990    0.33860062    0.06680000
opls_700-77    C    0.31099011    0.66503990    0.33860062    0.06680000
opls_700-78    C    0.18901011    0.16503990    0.66139938    0.06680000
opls_700-79    C    0.68901011    0.66503990    0.66139938    0.06680000
opls_145-80    C    0.17555007    0.80603990    0.81373906    -0.13220000
opls_145-81    C    0.67555007    0.30603990    0.81373906    -0.13220000
opls_145-82    C    0.82444993    0.80603990    0.18626094    -0.13220000
opls_145-83    C    0.32444993    0.30603990    0.18626094    -0.13220000
opls_145-84    C    0.82444993    0.19396010    0.18626094    -0.13220000
opls_145-85    C    0.32444993    0.69396010    0.18626094    -0.13220000
opls_145-86    C    0.17555007    0.19396010    0.81373906    -0.13220000
opls_145-87    C    0.67555007    0.69396010    0.81373906    -0.13220000
opls_145-88    C    0.19314005    0.78121995    0.90598932    -0.12960000
opls_145-89    C    0.69314005    0.28121995    0.90598932    -0.12960000
opls_145-90    C    0.80685995    0.78121995    0.09401068    -0.12960000
opls_145-91    C    0.30685995    0.28121995    0.09401068    -0.12960000
opls_145-92    C    0.80685995    0.21878005    0.09401068    -0.12960000
opls_145-93    C    0.30685995    0.71878005    0.09401068    -0.12960000
opls_145-94    C    0.19314005    0.21878005    0.90598932    -0.12950000
opls_145-95    C    0.69314005    0.71878005    0.90598932    -0.12960000
opls_700-96    C    0.22429011    0.78510000    0.84681020    0.12470000
opls_700-97    C    0.72429011    0.28510000    0.84681020    0.12470000
opls_700-98    C    0.77571011    0.78510000    0.15318980    0.12470000
opls_700-99    C    0.27571011    0.28510000    0.15318980    0.12470000
opls_700-100    C    0.77571011    0.21490000    0.15318980    0.12470000
opls_700-101    C    0.27571011    0.71490000    0.15318980    0.12470000
opls_700-102    C    0.22429011    0.21490000    0.84681020    0.12480000
opls_700-103    C    0.72429011    0.71490000    0.84681020    0.12470000
opls_145-104    C    0.23783999    0.81358005    0.68915791    -0.11890000
opls_145-105    C    0.73783999    0.31358005    0.68915791    -0.11890000
opls_145-106    C    0.76216007    0.81358005    0.31083948    -0.11880000
opls_145-107    C    0.26216007    0.31358005    0.31083948    -0.11890000
opls_145-108    C    0.76216007    0.18641995    0.31083948    -0.11890000
opls_145-109    C    0.26216007    0.68641995    0.31083948    -0.11890000
opls_145-110    C    0.23783999    0.18641995    0.68915791    -0.11890000
opls_145-111    C    0.73783999    0.68641995    0.68915791    -0.11890000
opls_145-112    C    0.22032009    0.83838005    0.59751973    -0.12960000
opls_145-113    C    0.72032009    0.33838005    0.59751973    -0.12960000
opls_145-114    C    0.77968013    0.83838005    0.40246981    -0.12960000
opls_145-115    C    0.27968013    0.33838005    0.40246981    -0.12960000
opls_145-116    C    0.77968013    0.16161995    0.40246981    -0.12960000
opls_145-117    C    0.27968013    0.66161995    0.40246981    -0.12960000
opls_145-118    C    0.22032009    0.16161995    0.59751973    -0.12960000
opls_145-119    C    0.72032009    0.66161995    0.59751973    -0.12960000
opls_261-120    C    0.24237016    0.76029002    0.95448826    -0.07860000
opls_261-121    C    0.74237016    0.26029002    0.95448826    -0.07860000
opls_261-122    C    0.75763011    0.76029002    0.04550912    -0.07860000
opls_261-123    C    0.25763011    0.26029002    0.04550912    -0.07860000
opls_261-124    C    0.75763011    0.23970998    0.04550912    -0.07860000
opls_261-125    C    0.25763011    0.73970998    0.04550912    -0.07860000
opls_261-126    C    0.24237016    0.23970998    0.95448826    -0.07860000
opls_261-127    C    0.74237016    0.73970998    0.95448826    -0.07860000
opls_142-128    C    0.17090998    0.86280000    0.59207893    0.06940000
opls_142-129    C    0.67090998    0.36279002    0.59207893    0.06940000
opls_142-130    C    0.82909007    0.86280000    0.40791845    0.06950000
opls_142-131    C    0.32909007    0.36279002    0.40791845    0.06940000
opls_142-132    C    0.82909007    0.13720998    0.40791845    0.06940000
opls_142-133    C    0.32909007    0.63720998    0.40791845    0.06940000
opls_142-134    C    0.17090998    0.13720998    0.59207893    0.06940000
opls_142-135    C    0.67090998    0.63720998    0.59207893    0.06940000
opls_145-136    C    0.42323996    0.50000000    0.42333055    -0.14630000
opls_145-137    C    0.92323996    0.00000000    0.42333055    -0.14630000
opls_145-138    C    0.57676004    0.50000000    0.57666945    -0.14640000
opls_145-139    C    0.07676004    0.00000000    0.57666945    -0.14640000
opls_700-140    C    0.51565015    0.50000000    0.91521775    0.00120000
opls_700-141    C    0.01565015    0.00000000    0.91521775    0.00120000
opls_700-142    C    0.48434990    0.50000000    0.08477963    0.00120000
opls_700-143    C    0.98434990    0.00000000    0.08477963    0.00120000
opls_146-144    H    0.47377009    0.58250000    0.10582871    0.09300000
opls_146-145    H    0.97377009    0.08250000    0.10582871    0.09310000
opls_146-146    H    0.52623018    0.58250000    0.89416867    0.09300000
opls_146-147    H    0.02623018    0.08250000    0.89416867    0.09300000
opls_146-148    H    0.52623018    0.41750000    0.89416867    0.09300000
opls_146-149    H    0.02623018    0.91750000    0.89416867    0.09300000
opls_146-150    H    0.47377009    0.41750000    0.10582871    0.09300000
opls_146-151    H    0.97377009    0.91750000    0.10582871    0.09300000
opls_146-152    H    0.38605997    0.53327007    0.10788994    0.11540000
opls_146-153    H    0.88605997    0.03327007    0.10788994    0.11540000
opls_146-154    H    0.61394003    0.53327007    0.89211006    0.11540000
opls_146-155    H    0.11394003    0.03327007    0.89211006    0.11550000
opls_146-156    H    0.61394003    0.46672993    0.89211006    0.11540000
opls_146-157    H    0.11394003    0.96672993    0.89211006    0.11540000
opls_146-158    H    0.38605997    0.46672993    0.10788994    0.11540000
opls_146-159    H    0.88605997    0.96672993    0.10788994    0.11540000
opls_146-160    H    0.35161998    0.57859002    0.13785879    0.11880000
opls_146-161    H    0.85161998    0.07859002    0.13785879    0.11880000
opls_146-162    H    0.64838007    0.57859002    0.86213860    0.11880000
opls_146-163    H    0.14838007    0.07859002    0.86213860    0.11880000
opls_146-164    H    0.64838007    0.42140998    0.86213860    0.11880000
opls_146-165    H    0.14838007    0.92140998    0.86213860    0.11890000
opls_146-166    H    0.35161998    0.42140998    0.13785879    0.11880000
opls_146-167    H    0.85161998    0.92140998    0.13785879    0.11880000
opls_146-168    H    0.40737002    0.63817007    0.61676916    0.11850000
opls_146-169    H    0.90737002    0.13817007    0.61676916    0.11850000
opls_146-170    H    0.59263003    0.63817007    0.38322822    0.11850000
opls_146-171    H    0.09263003    0.13817007    0.38322822    0.11850000
opls_146-172    H    0.59263003    0.36183990    0.38322822    0.12040000
opls_146-173    H    0.09263003    0.86183990    0.38322822    0.12040000
opls_146-174    H    0.40737002    0.36183990    0.61676916    0.11870000
opls_146-175    H    0.90737002    0.86183990    0.61676916    0.11870000
opls_146-176    H    0.44116012    0.59119002    0.62075036    0.11400000
opls_146-177    H    0.94116012    0.09119002    0.62075036    0.11400000
opls_146-178    H    0.55884010    0.59119002    0.37924964    0.11400000
opls_146-179    H    0.05884010    0.09119002    0.37924964    0.11400000
opls_146-180    H    0.55884010    0.40880998    0.37924964    0.11400000
opls_146-181    H    0.05884010    0.90880998    0.37924964    0.11410000
opls_146-182    H    0.44116012    0.40880998    0.62075036    0.11400000
opls_146-183    H    0.94116012    0.90880998    0.62075036    0.11400000
opls_146-184    H    0.15141012    0.80318005    0.86961969    0.11610000
opls_146-185    H    0.65141012    0.30318005    0.86961969    0.11610000
opls_146-186    H    0.84859010    0.80318005    0.13038031    0.11610000
opls_146-187    H    0.34859010    0.30318005    0.13038031    0.11610000
opls_146-188    H    0.84859010    0.19681995    0.13038031    0.11610000
opls_146-189    H    0.34859010    0.69681995    0.13038031    0.11610000
opls_146-190    H    0.15141012    0.19681995    0.86961969    0.11610000
opls_146-191    H    0.65141012    0.69681995    0.86961969    0.11610000
opls_146-192    H    0.18246012    0.75932993    0.02986945    0.11410000
opls_146-193    H    0.68246012    0.25932993    0.02986945    0.11410000
opls_146-194    H    0.81753988    0.75932993    0.97013055    0.11410000
opls_146-195    H    0.31753988    0.25932993    0.97013055    0.11410000
opls_146-196    H    0.81753988    0.24067007    0.97013055    0.11410000
opls_146-197    H    0.31753988    0.74067007    0.97013055    0.11410000
opls_146-198    H    0.18246012    0.24067007    0.02986945    0.11410000
opls_146-199    H    0.68246012    0.74067007    0.02986945    0.11410000
opls_146-200    H    0.26192005    0.81672993    0.64146985    0.11380000
opls_146-201    H    0.76192005    0.31672993    0.64146985    0.11370000
opls_146-202    H    0.73807995    0.81672993    0.35853015    0.11370000
opls_146-203    H    0.23807995    0.31672993    0.35853015    0.11370000
opls_146-204    H    0.73807995    0.18327007    0.35853015    0.11370000
opls_146-205    H    0.23807995    0.68327007    0.35853015    0.11370000
opls_146-206    H    0.26192005    0.18327007    0.64146985    0.11370000
opls_146-207    H    0.76192005    0.68327007    0.64146985    0.11370000
opls_146-208    H    0.23117012    0.86043990    0.48041967    0.11580000
opls_146-209    H    0.73117012    0.36043990    0.48041967    0.11580000
opls_146-210    H    0.76883010    0.86043990    0.51958033    0.11580000
opls_146-211    H    0.26883010    0.36043990    0.51958033    0.11580000
opls_146-212    H    0.76883010    0.13956010    0.51958033    0.11580000
opls_146-213    H    0.26883010    0.63956010    0.51958033    0.11580000
opls_146-214    H    0.23117012    0.13956010    0.48041967    0.11580000
opls_146-215    H    0.73117012    0.63956010    0.48041967    0.11580000
opls_144-216    H    0.81772007    0.11418005    0.47769928    0.10650000
opls_144-217    H    0.31772007    0.61418005    0.47769928    0.10650000
opls_144-218    H    0.18227998    0.11418005    0.52229811    0.10650000
opls_144-219    H    0.68227998    0.61418005    0.52229811    0.10650000
opls_144-220    H    0.18227998    0.88581995    0.52229811    0.09530000
opls_144-221    H    0.68227998    0.38581995    0.52229811    0.10650000
opls_144-222    H    0.81772007    0.88581995    0.47769928    0.09530000
opls_144-223    H    0.31772007    0.38581995    0.47769928    0.10650000
opls_146-224    H    0.39961997    0.50000000    0.55552882    0.11110000
opls_146-225    H    0.89961997    0.00000000    0.55552882    0.11120000
opls_146-226    H    0.60038008    0.50000000    0.44446857    0.11110000
opls_146-227    H    0.10038008    0.00000000    0.44446857    0.11110000
opls_750-228    N    0.14200998    0.86064988    0.62796988    -0.34630000
opls_750-229    N    0.64200998    0.36065012    0.62796988    -0.34630000
opls_750-230    N    0.85799002    0.86064988    0.37203012    -0.34620000
opls_750-231    N    0.35799002    0.36065012    0.37203012    -0.34630000
opls_750-232    N    0.85799002    0.13935012    0.37203012    -0.34630000
opls_750-233    N    0.35799002    0.63934988    0.37203012    -0.34620000
opls_750-234    N    0.14200998    0.13935012    0.62796988    -0.34630000
opls_750-235    N    0.64200998    0.63934988    0.62796988    -0.34630000
