#======================================================================
# Crystal Data Generated By AuToFF
#----------------------------------------------------------------------

data_AuToFF_phase_1

_cell_length_a                         23.6865
_cell_length_b                         23.6865
_cell_length_c                         13.3002
_cell_angle_alpha                      90.00
_cell_angle_beta                       90.00
_cell_angle_gamma                      90.00
_symmetry_space_group_name_H-M_alt     'P 1'
_symmetry_space_group_IT_number        1

loop_
_space_group_symop_operation_xyz
   'x, y, z'

loop_
   _atom_site_label
   _atom_site_type_symbol
   _atom_site_fract_x
   _atom_site_fract_y
   _atom_site_fract_z
   _atom_site_charge
opls_145-0    C    0.44990015    0.72180018    0.60439993    -0.12210000
opls_145-1    C    0.49360015    0.71399996    0.53114013    0.20010000
opls_145-2    C    0.54409980    0.74419986    0.55529992    -0.12210000
opls_142-3    C    0.51950014    0.66579993    0.36149983    0.03970000
opls_700-4    C    0.50959998    0.62729994    0.26499977    0.07200000
opls_145-5    C    0.55469993    0.61759990    0.19600006    -0.09420000
opls_145-6    C    0.55079982    0.58160007    0.10799988    -0.10600000
opls_700-7    C    0.50000000    0.55273004    0.07980030    0.07670000
opls_145-8    C    0.45500011    0.56279991    0.14900002    -0.10600000
opls_145-9    C    0.45899985    0.59880016    0.23720019    -0.10610000
opls_145-10    C    0.94990015    0.22180018    0.10439993    -0.12210000
opls_145-11    C    0.99360015    0.21399996    0.03114013    0.20010000
opls_145-12    C    0.04409980    0.24419986    0.05529992    -0.12210000
opls_142-13    C    0.01950014    0.16579993    0.86149983    0.03970000
opls_700-14    C    0.00959998    0.12729994    0.76499977    0.07200000
opls_145-15    C    0.05469993    0.11759990    0.69600006    -0.09420000
opls_145-16    C    0.05079982    0.08160007    0.60799988    -0.10600000
opls_700-17    C    0.00000000    0.05273004    0.57980030    0.07670000
opls_145-18    C    0.95500011    0.06279991    0.64900002    -0.10600000
opls_145-19    C    0.95899985    0.09880016    0.73720019    -0.10600000
opls_145-20    C    0.05009985    0.77819982    0.10439993    -0.12210000
opls_145-21    C    0.00639985    0.78600004    0.03114013    0.20010000
opls_145-22    C    0.95590020    0.75580014    0.05529992    -0.12200000
opls_142-23    C    0.98049986    0.83420007    0.86149983    0.03970000
opls_700-24    C    0.99040002    0.87270006    0.76499977    0.07200000
opls_145-25    C    0.94530007    0.88240010    0.69600006    -0.09420000
opls_145-26    C    0.94920018    0.91839993    0.60799988    -0.10600000
opls_700-27    C    0.00000000    0.94726996    0.57980030    0.07670000
opls_145-28    C    0.04499989    0.93720009    0.64900002    -0.10600000
opls_145-29    C    0.04100015    0.90119984    0.73720019    -0.10610000
opls_145-30    C    0.55009985    0.27819982    0.60439993    -0.12210000
opls_145-31    C    0.50639985    0.28600004    0.53114013    0.20010000
opls_145-32    C    0.45590020    0.25580014    0.55529992    -0.12210000
opls_142-33    C    0.48049986    0.33420007    0.36149983    0.03970000
opls_700-34    C    0.49040002    0.37270006    0.26499977    0.07200000
opls_145-35    C    0.44530007    0.38240010    0.19600006    -0.09420000
opls_145-36    C    0.44920018    0.41839993    0.10799988    -0.10600000
opls_700-37    C    0.50000000    0.44726996    0.07980030    0.07670000
opls_145-38    C    0.54499989    0.43720009    0.14900002    -0.10600000
opls_145-39    C    0.54100015    0.40119984    0.23720019    -0.10610000
opls_145-40    C    0.27819982    0.94990015    0.85439993    -0.12210000
opls_145-41    C    0.28600004    0.99360015    0.78114013    0.20010000
opls_145-42    C    0.25580014    0.04409980    0.80529992    -0.12210000
opls_142-43    C    0.33420007    0.01950014    0.61149983    0.03970000
opls_700-44    C    0.37270006    0.00959998    0.51499977    0.07200000
opls_145-45    C    0.38240010    0.05469993    0.44600006    -0.09420000
opls_145-46    C    0.41839993    0.05079982    0.35799988    -0.10600000
opls_700-47    C    0.44726996    0.00000000    0.32980030    0.07670000
opls_145-48    C    0.43720009    0.95500011    0.39900002    -0.10600000
opls_145-49    C    0.40119984    0.95899985    0.48720019    -0.10610000
opls_145-50    C    0.77819982    0.44990015    0.35439993    -0.12210000
opls_145-51    C    0.78600004    0.49360015    0.28114013    0.20010000
opls_145-52    C    0.75580014    0.54409980    0.30529992    -0.12210000
opls_142-53    C    0.83420007    0.51950014    0.11149983    0.03970000
opls_700-54    C    0.87270006    0.50959998    0.01499977    0.07200000
opls_145-55    C    0.88240010    0.55469993    0.94600006    -0.09420000
opls_145-56    C    0.91839993    0.55079982    0.85799988    -0.10600000
opls_700-57    C    0.94726996    0.50000000    0.82980030    0.07670000
opls_145-58    C    0.93720009    0.45500011    0.89900002    -0.10600000
opls_145-59    C    0.90119984    0.45899985    0.98720019    -0.10610000
opls_145-60    C    0.22180018    0.55009985    0.35439993    -0.12210000
opls_145-61    C    0.21399996    0.50639985    0.28114013    0.20010000
opls_145-62    C    0.24419986    0.45590020    0.30529992    -0.12210000
opls_142-63    C    0.16579993    0.48049986    0.11149983    0.03970000
opls_700-64    C    0.12729994    0.49040002    0.01499977    0.07200000
opls_145-65    C    0.11759990    0.44530007    0.94600006    -0.09420000
opls_145-66    C    0.08160007    0.44920018    0.85799988    -0.10600000
opls_700-67    C    0.05273004    0.50000000    0.82980030    0.07670000
opls_145-68    C    0.06279991    0.54499989    0.89900002    -0.10600000
opls_145-69    C    0.09880016    0.54100015    0.98720019    -0.10610000
opls_145-70    C    0.72180018    0.05009985    0.85439993    -0.12210000
opls_145-71    C    0.71399996    0.00639985    0.78114013    0.20010000
opls_145-72    C    0.74419986    0.95590020    0.80529992    -0.12210000
opls_142-73    C    0.66579993    0.98049986    0.61149983    0.03970000
opls_700-74    C    0.62729994    0.99040002    0.51499977    0.07200000
opls_145-75    C    0.61759990    0.94530007    0.44600006    -0.09420000
opls_145-76    C    0.58160007    0.94920018    0.35799988    -0.10600000
opls_700-77    C    0.55273004    0.00000000    0.32980030    0.07670000
opls_145-78    C    0.56279991    0.04499989    0.39900002    -0.10600000
opls_145-79    C    0.59880016    0.04100015    0.48720019    -0.10610000
opls_145-80    C    0.55009985    0.77819982    0.64560007    -0.12210000
opls_145-81    C    0.50639985    0.78600004    0.71885987    0.20010000
opls_145-82    C    0.45590020    0.75580014    0.69470008    -0.12210000
opls_142-83    C    0.48049986    0.83420007    0.88850017    0.03970000
opls_700-84    C    0.49040002    0.87270006    0.98500023    0.07200000
opls_145-85    C    0.44530007    0.88240010    0.05399994    -0.09420000
opls_145-86    C    0.44920018    0.91839993    0.14200012    -0.10600000
opls_700-87    C    0.50000000    0.94726996    0.17019970    0.07670000
opls_145-88    C    0.54499989    0.93720009    0.10099998    -0.10600000
opls_145-89    C    0.54100015    0.90119984    0.01279981    -0.10610000
opls_145-90    C    0.05009985    0.27819982    0.14560007    -0.12210000
opls_145-91    C    0.00639985    0.28600004    0.21885987    0.20010000
opls_145-92    C    0.95590020    0.25580014    0.19470008    -0.12210000
opls_142-93    C    0.98049986    0.33420007    0.38850017    0.03970000
opls_700-94    C    0.99040002    0.37270006    0.48500023    0.07200000
opls_145-95    C    0.94530007    0.38240010    0.55399994    -0.09420000
opls_145-96    C    0.94920018    0.41839993    0.64200012    -0.10600000
opls_700-97    C    0.00000000    0.44726996    0.67019970    0.07670000
opls_145-98    C    0.04499989    0.43720009    0.60099998    -0.10600000
opls_145-99    C    0.04100015    0.40119984    0.51279981    -0.10610000
opls_145-100    C    0.94990015    0.72180018    0.14560007    -0.12210000
opls_145-101    C    0.99360015    0.71399996    0.21885987    0.20010000
opls_145-102    C    0.04409980    0.74419986    0.19470008    -0.12210000
opls_142-103    C    0.01950014    0.66579993    0.38850017    0.03970000
opls_700-104    C    0.00959998    0.62729994    0.48500023    0.07200000
opls_145-105    C    0.05469993    0.61759990    0.55399994    -0.09410000
opls_145-106    C    0.05079982    0.58160007    0.64200012    -0.10600000
opls_700-107    C    0.00000000    0.55273004    0.67019970    0.07670000
opls_145-108    C    0.95500011    0.56279991    0.60099998    -0.10600000
opls_145-109    C    0.95899985    0.59880016    0.51279981    -0.10610000
opls_145-110    C    0.44990015    0.22180018    0.64560007    -0.12210000
opls_145-111    C    0.49360015    0.21399996    0.71885987    0.20010000
opls_145-112    C    0.54409980    0.24419986    0.69470008    -0.12210000
opls_142-113    C    0.51950014    0.16579993    0.88850017    0.03970000
opls_700-114    C    0.50959998    0.12729994    0.98500023    0.07200000
opls_145-115    C    0.55469993    0.11759990    0.05399994    -0.09420000
opls_145-116    C    0.55079982    0.08160007    0.14200012    -0.10590000
opls_700-117    C    0.50000000    0.05273004    0.17019970    0.07670000
opls_145-118    C    0.45500011    0.06279991    0.10099998    -0.10600000
opls_145-119    C    0.45899985    0.09880016    0.01279981    -0.10610000
opls_145-120    C    0.72180018    0.55009985    0.39560007    -0.12200000
opls_145-121    C    0.71399996    0.50639985    0.46885987    0.20010000
opls_145-122    C    0.74419986    0.45590020    0.44470008    -0.12210000
opls_142-123    C    0.66579993    0.48049986    0.63850017    0.03970000
opls_700-124    C    0.62729994    0.49040002    0.73500023    0.07200000
opls_145-125    C    0.61759990    0.44530007    0.80399994    -0.09420000
opls_145-126    C    0.58160007    0.44920018    0.89200012    -0.10600000
opls_700-127    C    0.55273004    0.50000000    0.92019970    0.07670000
opls_145-128    C    0.56279991    0.54499989    0.85099998    -0.10600000
opls_145-129    C    0.59880016    0.54100015    0.76279981    -0.10610000
opls_145-130    C    0.22180018    0.05009985    0.89560007    -0.12210000
opls_145-131    C    0.21399996    0.00639985    0.96885987    0.20010000
opls_145-132    C    0.24419986    0.95590020    0.94470008    -0.12210000
opls_142-133    C    0.16579993    0.98049986    0.13850017    0.03970000
opls_700-134    C    0.12729994    0.99040002    0.23500023    0.07200000
opls_145-135    C    0.11759990    0.94530007    0.30399994    -0.09420000
opls_145-136    C    0.08160007    0.94920018    0.39200012    -0.10600000
opls_700-137    C    0.05273004    0.00000000    0.42019970    0.07670000
opls_145-138    C    0.06279991    0.04499989    0.35099998    -0.10600000
opls_145-139    C    0.09880016    0.04100015    0.26279981    -0.10610000
opls_145-140    C    0.77819982    0.94990015    0.89560007    -0.12210000
opls_145-141    C    0.78600004    0.99360015    0.96885987    0.20010000
opls_145-142    C    0.75580014    0.04409980    0.94470008    -0.12210000
opls_142-143    C    0.83420007    0.01950014    0.13850017    0.03970000
opls_700-144    C    0.87270006    0.00959998    0.23500023    0.07200000
opls_145-145    C    0.88240010    0.05469993    0.30399994    -0.09410000
opls_145-146    C    0.91839993    0.05079982    0.39200012    -0.10600000
opls_700-147    C    0.94726996    0.00000000    0.42019970    0.07670000
opls_145-148    C    0.93720009    0.95500011    0.35099998    -0.10600000
opls_145-149    C    0.90119984    0.95899985    0.26279981    -0.10610000
opls_145-150    C    0.27819982    0.44990015    0.39560007    -0.12200000
opls_145-151    C    0.28600004    0.49360015    0.46885987    0.20020000
opls_145-152    C    0.25580014    0.54409980    0.44470008    -0.12210000
opls_142-153    C    0.33420007    0.51950014    0.63850017    0.03970000
opls_700-154    C    0.37270006    0.50959998    0.73500023    0.07200000
opls_145-155    C    0.38240010    0.55469993    0.80399994    -0.09420000
opls_145-156    C    0.41839993    0.55079982    0.89200012    -0.10590000
opls_700-157    C    0.44726996    0.50000000    0.92019970    0.07670000
opls_145-158    C    0.43720009    0.45500011    0.85099998    -0.10600000
opls_145-159    C    0.40119984    0.45899985    0.76279981    -0.10610000
opls_701-160    C    0.00000000    0.50000000    0.75000000    0.03200000
opls_701-161    C    0.50000000    0.00000000    0.25000000    0.03200000
opls_701-162    C    0.50000000    0.50000000    0.00000000    0.03200000
opls_701-163    C    0.00000000    0.00000000    0.50000000    0.03200000
opls_750-164    N    0.48400017    0.67848986    0.43836033    -0.24470000
opls_750-165    N    0.98400017    0.17848986    0.93836033    -0.24470000
opls_750-166    N    0.01599983    0.82151014    0.93836033    -0.24460000
opls_750-167    N    0.51599983    0.32151014    0.43836033    -0.24470000
opls_750-168    N    0.32151014    0.98400017    0.68836033    -0.24470000
opls_750-169    N    0.82151014    0.48400017    0.18836033    -0.24470000
opls_750-170    N    0.17848986    0.51599983    0.18836033    -0.24470000
opls_750-171    N    0.67848986    0.01599983    0.68836033    -0.24460000
opls_750-172    N    0.51599983    0.82151014    0.81163967    -0.24470000
opls_750-173    N    0.01599983    0.32151014    0.31163967    -0.24470000
opls_750-174    N    0.98400017    0.67848986    0.31163967    -0.24470000
opls_750-175    N    0.48400017    0.17848986    0.81163967    -0.24470000
opls_750-176    N    0.67848986    0.51599983    0.56163967    -0.24470000
opls_750-177    N    0.17848986    0.01599983    0.06163967    -0.24470000
opls_750-178    N    0.82151014    0.98400017    0.06163967    -0.24470000
opls_750-179    N    0.32151014    0.48400017    0.56163967    -0.24460000
opls_146-180    H    0.40809997    0.70049986    0.59370009    0.11880000
opls_146-181    H    0.58150001    0.74189982    0.50349995    0.04670000
opls_144-182    H    0.56330019    0.68370000    0.35949986    0.04680000
opls_146-183    H    0.59660017    0.63849999    0.20810965    0.11800000
opls_146-184    H    0.58859984    0.57519980    0.05889987    0.08000000
opls_146-185    H    0.41290018    0.54219999    0.13650020    0.04700000
opls_146-186    H    0.42000000    0.60371013    0.28431978    0.04730000
opls_146-187    H    0.90809997    0.20049986    0.09370009    0.11880000
opls_146-188    H    0.08150001    0.24189982    0.00349995    0.04670000
opls_144-189    H    0.06330019    0.18370000    0.85949986    0.04680000
opls_146-190    H    0.09660017    0.13849999    0.70810965    0.11800000
opls_146-191    H    0.08859984    0.07519980    0.55889987    0.08000000
opls_146-192    H    0.91290018    0.04219999    0.63650020    0.04700000
opls_146-193    H    0.92000000    0.10371013    0.78431978    0.04730000
opls_146-194    H    0.09190003    0.79950014    0.09370009    0.11880000
opls_146-195    H    0.91849999    0.75810018    0.00349995    0.04670000
opls_144-196    H    0.93669981    0.81630000    0.85949986    0.04680000
opls_146-197    H    0.90339983    0.86150001    0.70810965    0.11800000
opls_146-198    H    0.91140016    0.92480020    0.55889987    0.08000000
opls_146-199    H    0.08709982    0.95780001    0.63650020    0.04700000
opls_146-200    H    0.08000000    0.89628987    0.78431978    0.04730000
opls_146-201    H    0.59190003    0.29950014    0.59370009    0.11880000
opls_146-202    H    0.41849999    0.25810018    0.50349995    0.04670000
opls_144-203    H    0.43669981    0.31630000    0.35949986    0.04680000
opls_146-204    H    0.40339983    0.36150001    0.20810965    0.11800000
opls_146-205    H    0.41140016    0.42480020    0.05889987    0.08000000
opls_146-206    H    0.58709982    0.45780001    0.13650020    0.04700000
opls_146-207    H    0.58000000    0.39628987    0.28431978    0.04730000
opls_146-208    H    0.29950014    0.90809997    0.84370009    0.11890000
opls_146-209    H    0.25810018    0.08150001    0.75349995    0.04670000
opls_144-210    H    0.31630000    0.06330019    0.60949986    0.04680000
opls_146-211    H    0.36150001    0.09660017    0.45810965    0.11800000
opls_146-212    H    0.42480020    0.08859984    0.30889987    0.08000000
opls_146-213    H    0.45780001    0.91290018    0.38650020    0.04700000
opls_146-214    H    0.39628987    0.92000000    0.53431978    0.04730000
opls_146-215    H    0.79950014    0.40809997    0.34370009    0.11880000
opls_146-216    H    0.75810018    0.58150001    0.25349995    0.04670000
opls_144-217    H    0.81630000    0.56330019    0.10949986    0.04680000
opls_146-218    H    0.86150001    0.59660017    0.95810965    0.11800000
opls_146-219    H    0.92480020    0.58859984    0.80889987    0.08000000
opls_146-220    H    0.95780001    0.41290018    0.88650020    0.04700000
opls_146-221    H    0.89628987    0.42000000    0.03431978    0.04730000
opls_146-222    H    0.20049986    0.59190003    0.34370009    0.11880000
opls_146-223    H    0.24189982    0.41849999    0.25349995    0.04670000
opls_144-224    H    0.18370000    0.43669981    0.10949986    0.04680000
opls_146-225    H    0.13849999    0.40339983    0.95810965    0.11800000
opls_146-226    H    0.07519980    0.41140016    0.80889987    0.08000000
opls_146-227    H    0.04219999    0.58709982    0.88650020    0.04700000
opls_146-228    H    0.10371013    0.58000000    0.03431978    0.04730000
opls_146-229    H    0.70049986    0.09190003    0.84370009    0.11880000
opls_146-230    H    0.74189982    0.91849999    0.75349995    0.04670000
opls_144-231    H    0.68370000    0.93669981    0.60949986    0.04680000
opls_146-232    H    0.63849999    0.90339983    0.45810965    0.11800000
opls_146-233    H    0.57519980    0.91140016    0.30889987    0.08000000
opls_146-234    H    0.54219999    0.08709982    0.38650020    0.04700000
opls_146-235    H    0.60371013    0.08000000    0.53431978    0.04730000
opls_146-236    H    0.59190003    0.79950014    0.65629991    0.11880000
opls_146-237    H    0.41849999    0.75810018    0.74650005    0.04670000
opls_144-238    H    0.43669981    0.81630000    0.89050014    0.04680000
opls_146-239    H    0.40339983    0.86150001    0.04189035    0.11800000
opls_146-240    H    0.41140016    0.92480020    0.19110013    0.08000000
opls_146-241    H    0.58709982    0.95780001    0.11349980    0.04700000
opls_146-242    H    0.58000000    0.89628987    0.96568022    0.04730000
opls_146-243    H    0.09190003    0.29950014    0.15629991    0.11880000
opls_146-244    H    0.91849999    0.25810018    0.24650005    0.04670000
opls_144-245    H    0.93669981    0.31630000    0.39050014    0.04680000
opls_146-246    H    0.90339983    0.36150001    0.54189035    0.11800000
opls_146-247    H    0.91140016    0.42480020    0.69110013    0.08000000
opls_146-248    H    0.08709982    0.45780001    0.61349980    0.04710000
opls_146-249    H    0.08000000    0.39628987    0.46568022    0.04730000
opls_146-250    H    0.90809997    0.70049986    0.15629991    0.11880000
opls_146-251    H    0.08150001    0.74189982    0.24650005    0.04670000
opls_144-252    H    0.06330019    0.68370000    0.39050014    0.04680000
opls_146-253    H    0.09660017    0.63849999    0.54189035    0.11800000
opls_146-254    H    0.08859984    0.57519980    0.69110013    0.08000000
opls_146-255    H    0.91290018    0.54219999    0.61349980    0.04700000
opls_146-256    H    0.92000000    0.60371013    0.46568022    0.04730000
opls_146-257    H    0.40809997    0.20049986    0.65629991    0.11880000
opls_146-258    H    0.58150001    0.24189982    0.74650005    0.04670000
opls_144-259    H    0.56330019    0.18370000    0.89050014    0.04680000
opls_146-260    H    0.59660017    0.13849999    0.04189035    0.11800000
opls_146-261    H    0.58859984    0.07519980    0.19110013    0.08010000
opls_146-262    H    0.41290018    0.04219999    0.11349980    0.04700000
opls_146-263    H    0.42000000    0.10371013    0.96568022    0.04730000
opls_146-264    H    0.70049986    0.59190003    0.40629991    0.11880000
opls_146-265    H    0.74189982    0.41849999    0.49650005    0.04670000
opls_144-266    H    0.68370000    0.43669981    0.64050014    0.04680000
opls_146-267    H    0.63849999    0.40339983    0.79189035    0.11800000
opls_146-268    H    0.57519980    0.41140016    0.94110013    0.08000000
opls_146-269    H    0.54219999    0.58709982    0.86349980    0.04700000
opls_146-270    H    0.60371013    0.58000000    0.71568022    0.04730000
opls_146-271    H    0.20049986    0.09190003    0.90629991    0.11880000
opls_146-272    H    0.24189982    0.91849999    0.99650005    0.04670000
opls_144-273    H    0.18370000    0.93669981    0.14050014    0.04680000
opls_146-274    H    0.13849999    0.90339983    0.29189035    0.11800000
opls_146-275    H    0.07519980    0.91140016    0.44110013    0.08000000
opls_146-276    H    0.04219999    0.08709982    0.36349980    0.04700000
opls_146-277    H    0.10371013    0.08000000    0.21568022    0.04740000
opls_146-278    H    0.79950014    0.90809997    0.90629991    0.11880000
opls_146-279    H    0.75810018    0.08150001    0.99650005    0.04670000
opls_144-280    H    0.81630000    0.06330019    0.14050014    0.04680000
opls_146-281    H    0.86150001    0.09660017    0.29189035    0.11800000
opls_146-282    H    0.92480020    0.08859984    0.44110013    0.08000000
opls_146-283    H    0.95780001    0.91290018    0.36349980    0.04700000
opls_146-284    H    0.89628987    0.92000000    0.21568022    0.04730000
opls_146-285    H    0.29950014    0.40809997    0.40629991    0.11880000
opls_146-286    H    0.25810018    0.58150001    0.49650005    0.04670000
opls_144-287    H    0.31630000    0.56330019    0.64050014    0.04680000
opls_146-288    H    0.36150001    0.59660017    0.79189035    0.11800000
opls_146-289    H    0.42480020    0.58859984    0.94110013    0.08000000
opls_146-290    H    0.45780001    0.41290018    0.86349980    0.04700000
opls_146-291    H    0.39628987    0.42000000    0.71568022    0.04730000
