#======================================================================
# Crystal Data Generated By AuToFF
#----------------------------------------------------------------------

data_AuToFF_phase_1

_cell_length_a                         20.6578
_cell_length_b                         20.1838
_cell_length_c                         10.3532
_cell_angle_alpha                      90.00
_cell_angle_beta                       90.00
_cell_angle_gamma                      120.00
_symmetry_space_group_name_H-M_alt     'P 1'
_symmetry_space_group_IT_number        1

loop_
_space_group_symop_operation_xyz
   'x, y, z'

loop_
   _atom_site_label
   _atom_site_type_symbol
   _atom_site_fract_x
   _atom_site_fract_y
   _atom_site_fract_z
   _atom_site_charge
opls_234-0    C    0.80911013    0.78819006    0.32865008    0.41540000
opls_916-1    C    0.94504988    0.84343993    0.32267994    0.18110000
opls_145-2    C    0.99786005    0.83757998    0.24459974    -0.22540000
opls_700-3    C    0.07437012    0.89372002    0.24792045    0.07760000
opls_916-4    C    0.09723030    0.95607013    0.33468010    0.15860000
opls_145-5    C    0.04494006    0.96061026    0.41617954    -0.22320000
opls_145-6    C    0.96929018    0.90437010    0.41113955    -0.22380000
opls_234-7    C    0.23319020    0.02213027    0.35275953    0.41540000
opls_700-8    C    0.43850019    0.38692013    0.30832013    0.01550000
opls_700-9    C    0.45958006    0.32971027    0.31262025    0.02400000
opls_145-10    C    0.53583017    0.35202017    0.30631979    -0.09970000
opls_700-11    C    0.59184013    0.42940031    0.29328034    0.02000000
opls_700-12    C    0.57135014    0.48701006    0.29785960    0.02770000
opls_145-13    C    0.49503012    0.46463036    0.30575957    -0.09970000
opls_700-14    C    0.40797005    0.25064990    0.31712997    0.08260000
opls_700-15    C    0.36374000    0.37101022    0.30328015    0.08180000
opls_700-16    C    0.62384995    0.56589022    0.29362999    0.08250000
opls_700-17    C    0.66521019    0.44360023    0.27267994    0.07970000
opls_145-18    C    0.34147991    0.40266984    0.20282038    -0.21560000
opls_145-19    C    0.26824026    0.38946022    0.19682997    -0.21550000
opls_700-20    C    0.21413007    0.34314015    0.28981957    0.01240000
opls_145-21    C    0.23612008    0.30970990    0.38821041    -0.19150000
opls_145-22    C    0.30992022    0.32404998    0.39541011    -0.21630000
opls_145-23    C    0.35200036    0.21730032    0.22188019    -0.21510000
opls_145-24    C    0.29599006    0.14063987    0.23130047    -0.21560000
opls_700-25    C    0.29531012    0.09516021    0.33572036    0.00300000
opls_145-26    C    0.35519998    0.12612988    0.42440984    -0.21520000
opls_145-27    C    0.41075987    0.20363016    0.41583955    -0.19130000
opls_145-28    C    0.67802000    0.59618025    0.19478036    -0.21650000
opls_145-29    C    0.73751026    0.67146023    0.20254028    -0.21550000
opls_700-30    C    0.74313984    0.71854004    0.30809025    0.00300000
opls_145-31    C    0.68372993    0.69166026    0.39748967    -0.21560000
opls_145-32    C    0.62495015    0.61561997    0.39102983    -0.21520000
opls_145-33    C    0.67870020    0.40839020    0.16608005    -0.21560000
opls_145-34    C    0.74946994    0.41696015    0.14617993    -0.21560000
opls_700-35    C    0.80898003    0.46178992    0.23139029    0.00640000
opls_145-36    C    0.79684987    0.50081008    0.33355967    -0.19140000
opls_145-37    C    0.72539029    0.49113027    0.35478016    -0.21520000
opls_234-38    C    0.87760019    0.46415037    0.21687981    0.41530000
opls_916-39    C    0.93338979    0.38552994    0.17346038    0.18120000
opls_145-40    C    0.92551979    0.31787996    0.22698006    -0.22380000
opls_145-41    C    0.98576032    0.30442033    0.22500000    -0.22320000
opls_916-42    C    0.05473994    0.35848025    0.16947031    0.15710000
opls_700-43    C    0.06107984    0.42355009    0.10436966    0.06870000
opls_145-44    C    0.99995005    0.43651028    0.10843024    -0.22550000
opls_234-45    C    0.14166013    0.33347006    0.28753043    0.41510000
opls_148-46    C    0.12913016    0.48069988    0.03395955    -0.46880000
opls_148-47    C    0.12680032    0.88752025    0.15707994    -0.46870000
opls_234-48    C    0.80911013    0.78819006    0.82865008    0.41540000
opls_916-49    C    0.94504988    0.84343993    0.82267994    0.18110000
opls_145-50    C    0.99786005    0.83757998    0.74461036    -0.22550000
opls_700-51    C    0.07437012    0.89372002    0.74792045    0.07760000
opls_916-52    C    0.09723030    0.95607013    0.83468010    0.15860000
opls_145-53    C    0.04494006    0.96061026    0.91617954    -0.22320000
opls_145-54    C    0.96929018    0.90437010    0.91113955    -0.22380000
opls_234-55    C    0.23319020    0.02213027    0.85277016    0.41540000
opls_700-56    C    0.43850019    0.38692013    0.80832013    0.01550000
opls_700-57    C    0.45958006    0.32971027    0.81262025    0.02400000
opls_145-58    C    0.53583017    0.35202017    0.80631979    -0.09970000
opls_700-59    C    0.59184013    0.42940031    0.79328034    0.02000000
opls_700-60    C    0.57135014    0.48701006    0.79785960    0.02770000
opls_145-61    C    0.49503012    0.46463036    0.80577020    -0.09970000
opls_700-62    C    0.40797005    0.25064990    0.81712997    0.08260000
opls_700-63    C    0.36374000    0.37101022    0.80328015    0.08670000
opls_700-64    C    0.62384995    0.56589022    0.79362999    0.08250000
opls_700-65    C    0.66521019    0.44360023    0.77267994    0.07850000
opls_145-66    C    0.34147991    0.40266984    0.70283004    -0.21560000
opls_145-67    C    0.26824026    0.38946022    0.69682997    -0.21560000
opls_700-68    C    0.21413007    0.34314015    0.78983020    0.01240000
opls_145-69    C    0.23612008    0.30970990    0.88821041    -0.19150000
opls_145-70    C    0.30992022    0.32404998    0.89541011    -0.21630000
opls_145-71    C    0.35200036    0.21730032    0.72188019    -0.21520000
opls_145-72    C    0.29599006    0.14063987    0.73130047    -0.21560000
opls_700-73    C    0.29531012    0.09516021    0.83572036    0.00300000
opls_145-74    C    0.35519998    0.12612988    0.92440984    -0.21520000
opls_145-75    C    0.41075987    0.20363016    0.91583955    -0.19130000
opls_145-76    C    0.67802000    0.59618025    0.69478036    -0.21650000
opls_145-77    C    0.73751026    0.67146023    0.70254028    -0.21560000
opls_700-78    C    0.74313984    0.71854004    0.80809025    0.00300000
opls_145-79    C    0.68372993    0.69166026    0.89748967    -0.21560000
opls_145-80    C    0.62495015    0.61561997    0.89102983    -0.21520000
opls_145-81    C    0.67870020    0.40839020    0.66608005    -0.21560000
opls_145-82    C    0.74946994    0.41696015    0.64617993    -0.21560000
opls_700-83    C    0.80898003    0.46178992    0.73139995    0.00640000
opls_145-84    C    0.79684987    0.50081008    0.83355967    -0.19150000
opls_145-85    C    0.72539029    0.49113027    0.85478982    -0.21520000
opls_234-86    C    0.87760019    0.46415037    0.71687981    0.41540000
opls_916-87    C    0.93338979    0.38552994    0.67346038    0.18120000
opls_145-88    C    0.92551979    0.31787996    0.72698006    -0.22380000
opls_145-89    C    0.98576032    0.30442033    0.72500000    -0.22320000
opls_916-90    C    0.05473994    0.35848025    0.66947031    0.15710000
opls_700-91    C    0.06107984    0.42355009    0.60436966    0.06870000
opls_145-92    C    0.99995005    0.43651028    0.60843024    -0.22540000
opls_234-93    C    0.14166013    0.33347006    0.78754008    0.41520000
opls_148-94    C    0.12913016    0.48069988    0.53395955    -0.46870000
opls_148-95    C    0.12680032    0.88752025    0.65707994    -0.46870000
opls_238-96    N    0.87347022    0.78770035    0.30676989    -0.40030000
opls_238-97    N    0.16622984    0.01778980    0.33754008    -0.40010000
opls_238-98    N    0.87519982    0.39753989    0.18734980    -0.40010000
opls_238-99    N    0.11550002    0.35002986    0.17913978    -0.39990000
opls_238-100    N    0.87347022    0.78770035    0.80676989    -0.40040000
opls_238-101    N    0.16622984    0.01778980    0.83754008    -0.40000000
opls_238-102    N    0.87519982    0.39753989    0.68734980    -0.40000000
opls_238-103    N    0.11550002    0.35002986    0.67915041    -0.39980000
opls_236-104    O    0.80654019    0.84554008    0.36829966    -0.56760000
opls_236-105    O    0.24050017    0.96641014    0.38527991    -0.56910000
opls_236-106    O    0.93766016    0.52497014    0.23873005    -0.56900000
opls_236-107    O    0.10369012    0.31378034    0.38944964    -0.56810000
opls_236-108    O    0.80654019    0.84554008    0.86829966    -0.56760000
opls_236-109    O    0.24050017    0.96641014    0.88527991    -0.56920000
opls_236-110    O    0.93766016    0.52497014    0.73873005    -0.56910000
opls_236-111    O    0.10369012    0.31378034    0.88944964    -0.56790000
opls_146-112    H    0.97996996    0.79216038    0.18255032    0.21410000
opls_146-113    H    0.06141020    0.00531017    0.47930012    0.21410000
opls_146-114    H    0.55087981    0.31060008    0.30821002    0.21410000
opls_146-115    H    0.48013985    0.50612997    0.30755032    0.21410000
opls_146-116    H    0.37860015    0.43605032    0.13287003    0.21410000
opls_146-117    H    0.25583031    0.41533026    0.12383031    0.21410000
opls_146-118    H    0.19880982    0.27501991    0.45673995    0.21410000
opls_146-119    H    0.32407005    0.30015996    0.46886953    0.21420000
opls_146-120    H    0.35084996    0.24885982    0.14600027    0.21420000
opls_146-121    H    0.25507992    0.11880023    0.16205038    0.21410000
opls_146-122    H    0.35752997    0.09350000    0.49796971    0.21410000
opls_146-123    H    0.45232977    0.22577988    0.48377989    0.21420000
opls_146-124    H    0.67580991    0.56306008    0.11839045    0.21410000
opls_146-125    H    0.77754984    0.69085990    0.13185971    0.21410000
opls_146-126    H    0.68426010    0.72587999    0.47097033    0.21410000
opls_146-127    H    0.58433000    0.59633986    0.46062956    0.21410000
opls_146-128    H    0.63685982    0.37554006    0.10226017    0.21410000
opls_146-129    H    0.75681013    0.38959981    0.06908009    0.21410000
opls_146-130    H    0.83928981    0.53494000    0.39532995    0.21410000
opls_146-131    H    0.71753008    0.51830011    0.43130047    0.21410000
opls_146-132    H    0.87645995    0.27870018    0.26992041    0.21410000
opls_146-133    H    0.97902013    0.25516028    0.26554012    0.21410000
opls_146-134    H    0.00385990    0.48363014    0.06378028    0.21410000
opls_702-135    H    0.11499021    0.48358036    0.93324962    0.11340000
opls_702-136    H    0.17406977    0.46735981    0.03448982    0.10330000
opls_702-137    H    0.15051000    0.53704015    0.07783004    0.11000000
opls_241-138    H    0.86742998    0.74027042    0.27208979    0.25670000
opls_241-139    H    0.16773974    0.06644973    0.32895047    0.25650000
opls_241-140    H    0.82591022    0.35242007    0.18188966    0.25660000
opls_241-141    H    0.14573018    0.36186990    0.10207955    0.25670000
opls_146-142    H    0.93275002    0.90849032    0.47245006    0.21410000
opls_702-143    H    0.09773029    0.84482039    0.08182011    0.11330000
opls_702-144    H    0.16236988    0.87110004    0.20936039    0.09910000
opls_702-145    H    0.16160025    0.94227011    0.10933045    0.10230000
opls_146-146    H    0.97996996    0.79216038    0.68255032    0.21410000
opls_146-147    H    0.06141020    0.00531017    0.97930012    0.21420000
opls_146-148    H    0.55087981    0.31060008    0.80821968    0.21410000
opls_146-149    H    0.48013985    0.50612997    0.80755998    0.21410000
opls_146-150    H    0.37860015    0.43605032    0.63287003    0.21410000
opls_146-151    H    0.25583031    0.41533026    0.62383031    0.21410000
opls_146-152    H    0.19880982    0.27501991    0.95673995    0.21410000
opls_146-153    H    0.32407005    0.30015996    0.96886953    0.21420000
opls_146-154    H    0.35084996    0.24885982    0.64600027    0.21430000
opls_146-155    H    0.25507992    0.11880023    0.66205038    0.21410000
opls_146-156    H    0.35752997    0.09350000    0.99796971    0.21410000
opls_146-157    H    0.45232977    0.22577988    0.98377989    0.21410000
opls_146-158    H    0.67580991    0.56306008    0.61839045    0.21420000
opls_146-159    H    0.77754984    0.69085990    0.63185971    0.21410000
opls_146-160    H    0.68426010    0.72587999    0.97097033    0.21410000
opls_146-161    H    0.58433000    0.59633986    0.96062956    0.21410000
opls_146-162    H    0.63685982    0.37554006    0.60226017    0.21410000
opls_146-163    H    0.75681013    0.38959981    0.56908009    0.21410000
opls_146-164    H    0.83928981    0.53494000    0.89532995    0.21420000
opls_146-165    H    0.71753008    0.51830011    0.93130047    0.21410000
opls_146-166    H    0.87645995    0.27870018    0.76993007    0.21410000
opls_146-167    H    0.97902013    0.25516028    0.76554012    0.21420000
opls_146-168    H    0.00385990    0.48363014    0.56378028    0.21410000
opls_702-169    H    0.11499021    0.48358036    0.43324962    0.11330000
opls_702-170    H    0.17406977    0.46735981    0.53448982    0.10320000
opls_702-171    H    0.15051000    0.53704015    0.57783004    0.11000000
opls_241-172    H    0.86742998    0.74027042    0.77208979    0.25670000
opls_241-173    H    0.16773974    0.06644973    0.82895047    0.25650000
opls_241-174    H    0.82591022    0.35242007    0.68188966    0.25660000
opls_241-175    H    0.14573018    0.36186990    0.60207955    0.25670000
opls_146-176    H    0.93275002    0.90849032    0.97245006    0.21410000
opls_702-177    H    0.09773029    0.84482039    0.58182011    0.11330000
opls_702-178    H    0.16236988    0.87110004    0.70937005    0.09910000
opls_702-179    H    0.16160025    0.94227011    0.60934011    0.10230000
