#======================================================================
# Crystal Data Generated By AuToFF
#----------------------------------------------------------------------

data_AuToFF_phase_1

_cell_length_a                         29.9071
_cell_length_b                         29.9071
_cell_length_c                         3.5708
_cell_angle_alpha                      90.00
_cell_angle_beta                       90.00
_cell_angle_gamma                      120.00
_symmetry_space_group_name_H-M_alt     'P 1'
_symmetry_space_group_IT_number        1

loop_
_space_group_symop_operation_xyz
   'x, y, z'

loop_
   _atom_site_label
   _atom_site_type_symbol
   _atom_site_fract_x
   _atom_site_fract_y
   _atom_site_fract_z
   _atom_site_charge
opls_146-0    H    0.58929995    0.58249998    0.50000000    0.11950000
opls_146-1    H    0.41399996    0.42069998    0.50000000    0.12430000
opls_910-2    H    0.35619980    0.55469992    0.50000000    0.30650000
opls_910-3    H    0.64659994    0.44740005    0.50000000    0.31120000
opls_144-4    H    0.55369995    0.34150016    0.50000000    0.10400000
opls_144-5    H    0.44789999    0.66129981    0.50000000    0.08400000
opls_146-6    H    0.41749996    0.00679992    0.50000000    0.11950000
opls_146-7    H    0.57929998    0.99330008    0.50000000    0.12430000
opls_910-8    H    0.44529999    0.80150006    0.50000000    0.30650000
opls_910-9    H    0.55260009    0.19919993    0.50000000    0.31120000
opls_144-10    H    0.65850001    0.21220016    0.50000000    0.10400000
opls_144-11    H    0.33869985    0.78659985    0.50000000    0.08400000
opls_146-12    H    0.99320009    0.41070010    0.50000000    0.11950000
opls_146-13    H    0.00670006    0.58599994    0.50000000    0.12430000
opls_910-14    H    0.19849988    0.64380002    0.50000000    0.30650000
opls_910-15    H    0.80079997    0.35340002    0.50000000    0.31120000
opls_144-16    H    0.78779990    0.44630006    0.50000000    0.10400000
opls_144-17    H    0.21339997    0.55209996    0.50000000    0.08400000
opls_633-18    S    0.50429981    0.39769987    0.50000000    0.04230000
opls_633-19    S    0.49879997    0.60540009    0.50000000    0.04130000
opls_633-20    S    0.60230001    0.10659988    0.50000000    0.04230000
opls_633-21    S    0.39460006    0.89340012    0.50000000    0.04220000
opls_633-22    S    0.89339998    0.49569986    0.50000000    0.04230000
opls_633-23    S    0.10659998    0.50119979    0.50000000    0.04130000
opls_281-24    O    0.29769986    0.56249983    0.50000000    -0.36480000
opls_281-25    O    0.70440003    0.43790016    0.50000000    -0.26530000
opls_281-26    O    0.43750016    0.73520008    0.50000000    -0.36480000
opls_281-27    O    0.56209996    0.26649990    0.50000000    -0.26530000
opls_281-28    O    0.26479998    0.70230009    0.50000000    -0.36480000
opls_281-29    O    0.73350002    0.29559994    0.50000000    -0.26530000
opls_238-30    N    0.39539991    0.58159999    0.50000000    -0.26840000
opls_238-31    N    0.60729990    0.42089998    0.50000000    -0.24100000
opls_635-32    N    0.41460018    0.51370003    0.50000000    -0.36990000
opls_635-33    N    0.58860007    0.48929994    0.50000000    -0.36280000
opls_238-34    N    0.41839990    0.81379991    0.50000000    -0.26820000
opls_238-35    N    0.57910005    0.18640009    0.50000000    -0.24100000
opls_635-36    N    0.48630003    0.90090003    0.50000000    -0.36990000
opls_635-37    N    0.51070004    0.09929997    0.50000000    -0.36280000
opls_238-38    N    0.18620019    0.60460010    0.50000000    -0.26840000
opls_238-39    N    0.81360005    0.39269993    0.50000000    -0.24100000
opls_635-40    N    0.09910012    0.58539994    0.50000000    -0.36970000
opls_635-41    N    0.90069990    0.41140010    0.50000000    -0.36280000
opls_280-42    C    0.31409986    0.61000003    0.50000000    0.15710000
opls_700-43    C    0.37039996    0.64759997    0.50000000    -0.12360000
opls_142-44    C    0.40699999    0.63179977    0.50000000    0.08950000
opls_145-45    C    0.45169996    0.45539995    0.50000000    -0.17560000
opls_637-46    C    0.49720013    0.45329998    0.50000000    -0.04670000
opls_507-47    C    0.54719990    0.49849982    0.50000000    0.19490000
opls_145-48    C    0.55160010    0.54770001    0.50000000    -0.18570000
opls_637-49    C    0.50600014    0.54989998    0.50000000    -0.04620000
opls_507-50    C    0.45610017    0.50460014    0.50000000    0.19050000
opls_627-51    C    0.57300015    0.43960014    0.50000000    0.28280000
opls_627-52    C    0.42999981    0.56339982    0.50000000    0.28470000
opls_142-53    C    0.59479981    0.37049981    0.50000000    0.08940000
opls_700-54    C    0.63059994    0.35360001    0.50000000    -0.12370000
opls_280-55    C    0.68710005    0.39029996    0.50000000    0.15140000
opls_280-56    C    0.38999988    0.70410007    0.50000000    0.15710000
opls_700-57    C    0.35240005    0.72279984    0.50000000    -0.12360000
opls_142-58    C    0.36819992    0.77519999    0.50000000    0.08940000
opls_145-59    C    0.54459986    0.99630004    0.50000000    -0.17560000
opls_637-60    C    0.54669991    0.04389986    0.50000000    -0.04670000
opls_507-61    C    0.50150000    0.04870019    0.50000000    0.19490000
opls_145-62    C    0.45229989    0.00389995    0.50000000    -0.18580000
opls_637-63    C    0.45009999    0.95609975    0.50000000    -0.04620000
opls_507-64    C    0.49539975    0.95149981    0.50000000    0.19050000
opls_627-65    C    0.56040013    0.13339995    0.50000000    0.28280000
opls_627-66    C    0.43659991    0.86660005    0.50000000    0.28470000
opls_142-67    C    0.62950007    0.22430002    0.50000000    0.08940000
opls_700-68    C    0.64640021    0.27700016    0.50000000    -0.12370000
opls_280-69    C    0.60970012    0.29679992    0.50000000    0.15130000
opls_280-70    C    0.29589992    0.68589990    0.50000000    0.15710000
opls_700-71    C    0.27719980    0.62959980    0.50000000    -0.12360000
opls_142-72    C    0.22479989    0.59299985    0.50000000    0.08940000
opls_145-73    C    0.00369984    0.54830000    0.50000000    -0.17550000
opls_637-74    C    0.95609997    0.50280016    0.50000000    -0.04670000
opls_507-75    C    0.95130010    0.45279999    0.50000000    0.19490000
opls_145-76    C    0.99610000    0.44840004    0.50000000    -0.18580000
opls_637-77    C    0.04390001    0.49399988    0.50000000    -0.04620000
opls_507-78    C    0.04850008    0.54390005    0.50000000    0.19050000
opls_627-79    C    0.86660005    0.42699991    0.50000000    0.28280000
opls_627-80    C    0.13339994    0.57000013    0.50000000    0.28480000
opls_142-81    C    0.77569992    0.40519978    0.50000000    0.08940000
opls_700-82    C    0.72299985    0.36939983    0.50000000    -0.12370000
opls_280-83    C    0.70320016    0.31290012    0.50000000    0.15130000
