#======================================================================
# Crystal Data Generated By AuToFF
#----------------------------------------------------------------------

data_AuToFF_phase_1

_cell_length_a                         47.3100
_cell_length_b                         48.2400
_cell_length_c                         3.7300
_cell_angle_alpha                      90.00
_cell_angle_beta                       88.46
_cell_angle_gamma                      90.00
_symmetry_space_group_name_H-M_alt     'P 1'
_symmetry_space_group_IT_number        1

loop_
_space_group_symop_operation_xyz
   'x, y, z'

loop_
   _atom_site_label
   _atom_site_type_symbol
   _atom_site_fract_x
   _atom_site_fract_y
   _atom_site_fract_z
   _atom_site_charge
opls_507-0    C    0.47856008    0.55861007    0.40525123    0.21450000
opls_716-1    C    0.48636006    0.58603006    0.43989916    -0.15550000
opls_507-2    C    0.44465006    0.52224005    0.22780899    0.21450000
opls_716-3    C    0.41949000    0.51413993    0.07939066    -0.14650000
opls_700-4    C    0.45158005    0.55028006    0.29057970    -0.07090000
opls_700-5    C    0.57111009    0.57187002    0.73884114    0.07900000
opls_145-6    C    0.56518996    0.59799005    0.89009159    -0.07890000
opls_145-7    C    0.58595001    0.61854996    0.90029099    -0.14170000
opls_145-8    C    0.61333007    0.61320004    0.76371073    0.22960000
opls_145-9    C    0.61963995    0.58709992    0.62145012    -0.11730000
opls_145-10    C    0.59872013    0.56676990    0.60645006    -0.07900000
opls_142-11    C    0.62944004    0.66020004    0.80717954    0.09600000
opls_700-12    C    0.65189007    0.68104001    0.77425073    0.06930000
opls_145-13    C    0.64457013    0.70905991    0.76343985    -0.09690000
opls_145-14    C    0.66543006    0.72916003    0.70415030    -0.07880000
opls_700-15    C    0.69394008    0.72166998    0.65647084    0.01470000
opls_145-16    C    0.70110012    0.69350995    0.67631180    -0.07880000
opls_145-17    C    0.68031000    0.67332007    0.73258150    -0.09850000
opls_543-18    C    0.71468007    0.74180991    0.57827096    0.13430000
opls_234-19    C    0.73546004    0.78157007    0.39899964    0.48230000
opls_551-20    C    0.75621993    0.76192993    0.44159146    -0.08940000
opls_245-21    C    0.68230010    0.78366003    0.42600137    -0.07710000
opls_136-22    C    0.67958996    0.81041003    0.63735937    -0.16040000
opls_136-23    C    0.65061012    0.82276990    0.58355169    -0.10910000
opls_135-24    C    0.64927001    0.85141003    0.74856047    -0.33370000
opls_507-25    C    0.97856008    0.05861007    0.40525123    0.21450000
opls_716-26    C    0.98636006    0.08603006    0.43989916    -0.15550000
opls_507-27    C    0.94465006    0.02224005    0.22780899    0.21450000
opls_716-28    C    0.91949000    0.01413993    0.07939066    -0.14640000
opls_700-29    C    0.95158005    0.05028006    0.29057970    -0.07090000
opls_700-30    C    0.07111009    0.07187002    0.73884114    0.07890000
opls_145-31    C    0.06518996    0.09799005    0.89009159    -0.07900000
opls_145-32    C    0.08595001    0.11854996    0.90029099    -0.14170000
opls_145-33    C    0.11333007    0.11320004    0.76371073    0.22960000
opls_145-34    C    0.11963995    0.08709992    0.62145012    -0.11730000
opls_145-35    C    0.09872013    0.06676990    0.60645006    -0.07900000
opls_142-36    C    0.12944004    0.16020004    0.80717954    0.09600000
opls_700-37    C    0.15189007    0.18104001    0.77425073    0.06930000
opls_145-38    C    0.14457013    0.20905991    0.76343985    -0.09690000
opls_145-39    C    0.16543006    0.22916003    0.70415030    -0.07880000
opls_700-40    C    0.19394008    0.22166998    0.65647084    0.01470000
opls_145-41    C    0.20110012    0.19350995    0.67631180    -0.07880000
opls_145-42    C    0.18031000    0.17332007    0.73258150    -0.09840000
opls_543-43    C    0.21468007    0.24180991    0.57827096    0.13430000
opls_234-44    C    0.23546004    0.28157007    0.39899964    0.48240000
opls_551-45    C    0.25621993    0.26192993    0.44159146    -0.08940000
opls_245-46    C    0.18230010    0.28366003    0.42600137    -0.07720000
opls_136-47    C    0.17958996    0.31041003    0.63735937    -0.16040000
opls_136-48    C    0.15061012    0.32276990    0.58355169    -0.10910000
opls_135-49    C    0.14927001    0.35141003    0.74856047    -0.33370000
opls_507-50    C    0.52144012    0.55861007    0.59475145    0.21450000
opls_716-51    C    0.51363994    0.58603006    0.56010084    -0.15550000
opls_507-52    C    0.55535015    0.52224005    0.77219101    0.21450000
opls_716-53    C    0.58050999    0.51413993    0.92061202    -0.14650000
opls_700-54    C    0.54841995    0.55028006    0.70942030    -0.07090000
opls_700-55    C    0.42889012    0.57187002    0.26115886    0.07890000
opls_145-56    C    0.43481003    0.59799005    0.10991109    -0.07900000
opls_145-57    C    0.41404999    0.61854996    0.09970901    -0.14170000
opls_145-58    C    0.38666993    0.61320004    0.23628927    0.22960000
opls_145-59    C    0.38036005    0.58709992    0.37854988    -0.11730000
opls_145-60    C    0.40128008    0.56676990    0.39354994    -0.07900000
opls_142-61    C    0.37055996    0.66020004    0.19282046    0.09600000
opls_700-62    C    0.34810993    0.68104001    0.22574927    0.06930000
opls_145-63    C    0.35543008    0.70905991    0.23656015    -0.09690000
opls_145-64    C    0.33456994    0.72916003    0.29584970    -0.07880000
opls_700-65    C    0.30606013    0.72166998    0.34352916    0.01470000
opls_145-66    C    0.29890009    0.69350995    0.32369088    -0.07880000
opls_145-67    C    0.31969000    0.67332007    0.26742118    -0.09850000
opls_543-68    C    0.28531993    0.74180991    0.42172904    0.13430000
opls_234-69    C    0.26453996    0.78157007    0.60100036    0.48230000
opls_551-70    C    0.24378006    0.76192993    0.55841122    -0.08940000
opls_245-71    C    0.31770011    0.78366003    0.57400131    -0.07720000
opls_136-72    C    0.32041004    0.81041003    0.36264063    -0.16030000
opls_136-73    C    0.34939009    0.82276990    0.41645099    -0.10910000
opls_135-74    C    0.35072999    0.85141003    0.25143953    -0.33380000
opls_507-75    C    0.02144012    0.05861007    0.59475145    0.21450000
opls_716-76    C    0.01363994    0.08603006    0.56010084    -0.15550000
opls_507-77    C    0.05535015    0.02224005    0.77219101    0.21450000
opls_716-78    C    0.08050999    0.01413993    0.92061202    -0.14650000
opls_700-79    C    0.04841995    0.05028006    0.70942030    -0.07090000
opls_700-80    C    0.92889012    0.07187002    0.26115886    0.07890000
opls_145-81    C    0.93481003    0.09799005    0.10991109    -0.07900000
opls_145-82    C    0.91404999    0.11854996    0.09970901    -0.14170000
opls_145-83    C    0.88666993    0.11320004    0.23628927    0.22960000
opls_145-84    C    0.88036005    0.08709992    0.37854988    -0.11730000
opls_145-85    C    0.90128008    0.06676990    0.39354994    -0.07900000
opls_142-86    C    0.87055996    0.16020004    0.19282046    0.09600000
opls_700-87    C    0.84810993    0.18104001    0.22574927    0.06930000
opls_145-88    C    0.85543008    0.20905991    0.23656015    -0.09690000
opls_145-89    C    0.83456994    0.22916003    0.29584970    -0.07880000
opls_700-90    C    0.80606013    0.22166998    0.34352916    0.01470000
opls_145-91    C    0.79890009    0.19350995    0.32369088    -0.07870000
opls_145-92    C    0.81969000    0.17332007    0.26742118    -0.09850000
opls_543-93    C    0.78531993    0.24180991    0.42172904    0.13430000
opls_234-94    C    0.76453996    0.28157007    0.60100036    0.48230000
opls_551-95    C    0.74378006    0.26192993    0.55841122    -0.08940000
opls_245-96    C    0.81770011    0.28366003    0.57400131    -0.07720000
opls_136-97    C    0.82041004    0.31041003    0.36264063    -0.16040000
opls_136-98    C    0.84939009    0.32276990    0.41645099    -0.10910000
opls_135-99    C    0.85072999    0.35141003    0.25143953    -0.33380000
opls_507-100    C    0.52144012    0.44138993    0.59475145    0.21450000
opls_716-101    C    0.51363994    0.41396994    0.56010084    -0.15550000
opls_507-102    C    0.55535015    0.47775995    0.77219101    0.21450000
opls_716-103    C    0.58050999    0.48586007    0.92061202    -0.14650000
opls_700-104    C    0.54841995    0.44971994    0.70942030    -0.07090000
opls_700-105    C    0.42889012    0.42812998    0.26115886    0.07900000
opls_145-106    C    0.43481003    0.40200995    0.10991109    -0.07900000
opls_145-107    C    0.41404999    0.38145004    0.09970901    -0.14170000
opls_145-108    C    0.38666993    0.38679996    0.23628927    0.22960000
opls_145-109    C    0.38036005    0.41290008    0.37854988    -0.11730000
opls_145-110    C    0.40128008    0.43323010    0.39354994    -0.07900000
opls_142-111    C    0.37055996    0.33979996    0.19282046    0.09600000
opls_700-112    C    0.34810993    0.31895999    0.22574927    0.06930000
opls_145-113    C    0.35543008    0.29094009    0.23656015    -0.09690000
opls_145-114    C    0.33456994    0.27083997    0.29584970    -0.07880000
opls_700-115    C    0.30606013    0.27833002    0.34352916    0.01470000
opls_145-116    C    0.29890009    0.30649005    0.32369088    -0.07880000
opls_145-117    C    0.31969000    0.32667993    0.26742118    -0.09850000
opls_543-118    C    0.28531993    0.25819009    0.42172904    0.13430000
opls_234-119    C    0.26453996    0.21842993    0.60100036    0.48230000
opls_551-120    C    0.24378006    0.23807007    0.55841122    -0.08940000
opls_245-121    C    0.31770011    0.21633997    0.57400131    -0.07720000
opls_136-122    C    0.32041004    0.18958997    0.36264063    -0.16030000
opls_136-123    C    0.34939009    0.17723010    0.41645099    -0.10900000
opls_135-124    C    0.35072999    0.14858997    0.25143953    -0.33380000
opls_507-125    C    0.02144012    0.94138993    0.59475145    0.21450000
opls_716-126    C    0.01363994    0.91396994    0.56010084    -0.15550000
opls_507-127    C    0.05535015    0.97775995    0.77219101    0.21460000
opls_716-128    C    0.08050999    0.98586007    0.92061202    -0.14650000
opls_700-129    C    0.04841995    0.94971994    0.70942030    -0.07090000
opls_700-130    C    0.92889012    0.92812998    0.26115886    0.07890000
opls_145-131    C    0.93481003    0.90200995    0.10991109    -0.07900000
opls_145-132    C    0.91404999    0.88145004    0.09970901    -0.14170000
opls_145-133    C    0.88666993    0.88679996    0.23628927    0.22960000
opls_145-134    C    0.88036005    0.91290008    0.37854988    -0.11730000
opls_145-135    C    0.90128008    0.93323010    0.39354994    -0.07900000
opls_142-136    C    0.87055996    0.83979996    0.19282046    0.09600000
opls_700-137    C    0.84810993    0.81895999    0.22574927    0.06930000
opls_145-138    C    0.85543008    0.79094009    0.23656015    -0.09690000
opls_145-139    C    0.83456994    0.77083997    0.29584970    -0.07880000
opls_700-140    C    0.80606013    0.77833002    0.34352916    0.01470000
opls_145-141    C    0.79890009    0.80649005    0.32369088    -0.07880000
opls_145-142    C    0.81969000    0.82667993    0.26742118    -0.09840000
opls_543-143    C    0.78531993    0.75819009    0.42172904    0.13430000
opls_234-144    C    0.76453996    0.71842993    0.60100036    0.48240000
opls_551-145    C    0.74378006    0.73807007    0.55841122    -0.08940000
opls_245-146    C    0.81770011    0.71633997    0.57400131    -0.07720000
opls_136-147    C    0.82041004    0.68958997    0.36264063    -0.16040000
opls_136-148    C    0.84939009    0.67723010    0.41645099    -0.10890000
opls_135-149    C    0.85072999    0.64858997    0.25143953    -0.33370000
opls_507-150    C    0.47856008    0.44138993    0.40525123    0.21450000
opls_716-151    C    0.48636006    0.41396994    0.43989916    -0.15550000
opls_507-152    C    0.44465006    0.47775995    0.22780899    0.21460000
opls_716-153    C    0.41949000    0.48586007    0.07939066    -0.14650000
opls_700-154    C    0.45158005    0.44971994    0.29057970    -0.07080000
opls_700-155    C    0.57111009    0.42812998    0.73884114    0.07890000
opls_145-156    C    0.56518996    0.40200995    0.89009159    -0.07900000
opls_145-157    C    0.58595001    0.38145004    0.90029099    -0.14170000
opls_145-158    C    0.61333007    0.38679996    0.76371073    0.22960000
opls_145-159    C    0.61963995    0.41290008    0.62145012    -0.11730000
opls_145-160    C    0.59872013    0.43323010    0.60645006    -0.07900000
opls_142-161    C    0.62944004    0.33979996    0.80717954    0.09600000
opls_700-162    C    0.65189007    0.31895999    0.77425073    0.06930000
opls_145-163    C    0.64457013    0.29094009    0.76343985    -0.09690000
opls_145-164    C    0.66543006    0.27083997    0.70415030    -0.07880000
opls_700-165    C    0.69394008    0.27833002    0.65647084    0.01470000
opls_145-166    C    0.70110012    0.30649005    0.67631180    -0.07880000
opls_145-167    C    0.68031000    0.32667993    0.73258150    -0.09850000
opls_543-168    C    0.71468007    0.25819009    0.57827096    0.13430000
opls_234-169    C    0.73546004    0.21842993    0.39899964    0.48230000
opls_551-170    C    0.75621993    0.23807007    0.44159146    -0.08940000
opls_245-171    C    0.68230010    0.21633997    0.42600137    -0.07720000
opls_136-172    C    0.67958996    0.18958997    0.63735937    -0.16040000
opls_136-173    C    0.65061012    0.17723010    0.58355169    -0.10910000
opls_135-174    C    0.64927001    0.14858997    0.74856047    -0.33380000
opls_507-175    C    0.97856008    0.94138993    0.40525123    0.21460000
opls_716-176    C    0.98636006    0.91396994    0.43989916    -0.15550000
opls_507-177    C    0.94465006    0.97775995    0.22780899    0.21460000
opls_716-178    C    0.91949000    0.98586007    0.07939066    -0.14650000
opls_700-179    C    0.95158005    0.94971994    0.29057970    -0.07090000
opls_700-180    C    0.07111009    0.92812998    0.73884114    0.07890000
opls_145-181    C    0.06518996    0.90200995    0.89009159    -0.07900000
opls_145-182    C    0.08595001    0.88145004    0.90029099    -0.14170000
opls_145-183    C    0.11333007    0.88679996    0.76371073    0.22970000
opls_145-184    C    0.11963995    0.91290008    0.62145012    -0.11720000
opls_145-185    C    0.09872013    0.93323010    0.60645006    -0.07900000
opls_142-186    C    0.12944004    0.83979996    0.80717954    0.09600000
opls_700-187    C    0.15189007    0.81895999    0.77425073    0.06930000
opls_145-188    C    0.14457013    0.79094009    0.76343985    -0.09690000
opls_145-189    C    0.16543006    0.77083997    0.70415030    -0.07880000
opls_700-190    C    0.19394008    0.77833002    0.65647084    0.01470000
opls_145-191    C    0.20110012    0.80649005    0.67631180    -0.07880000
opls_145-192    C    0.18031000    0.82667993    0.73258150    -0.09850000
opls_543-193    C    0.21468007    0.75819009    0.57827096    0.13430000
opls_234-194    C    0.23546004    0.71842993    0.39899964    0.48260000
opls_551-195    C    0.25621993    0.73807007    0.44159146    -0.08940000
opls_245-196    C    0.18230010    0.71633997    0.42600137    -0.07720000
opls_136-197    C    0.17958996    0.68958997    0.63735937    -0.16040000
opls_136-198    C    0.15061012    0.67723010    0.58355169    -0.10910000
opls_135-199    C    0.14927001    0.64858997    0.74856047    -0.33380000
opls_750-200    N    0.63468013    0.63420004    0.74923095    -0.29930000
opls_542-201    N    0.70952013    0.77044009    0.48526142    -0.10510000
opls_750-202    N    0.13468013    0.13420004    0.74923095    -0.29930000
opls_542-203    N    0.20952013    0.27044009    0.48526142    -0.10520000
opls_750-204    N    0.36532008    0.63420004    0.25076905    -0.29900000
opls_542-205    N    0.29048007    0.77044009    0.51474126    -0.10520000
opls_750-206    N    0.86532008    0.13420004    0.25076905    -0.29930000
opls_542-207    N    0.79048007    0.27044009    0.51474126    -0.10520000
opls_750-208    N    0.36532008    0.36579996    0.25076905    -0.29930000
opls_542-209    N    0.29048007    0.22955991    0.51474126    -0.10520000
opls_750-210    N    0.86532008    0.86579996    0.25076905    -0.29920000
opls_542-211    N    0.79048007    0.72955991    0.51474126    -0.10510000
opls_750-212    N    0.63468013    0.36579996    0.74923095    -0.29930000
opls_542-213    N    0.70952013    0.22955991    0.48526142    -0.10520000
opls_750-214    N    0.13468013    0.86579996    0.74923095    -0.29930000
opls_542-215    N    0.20952013    0.72955991    0.48526142    -0.10520000
opls_542-216    N    0.50000000    0.54150995    0.50000134    -0.25570000
opls_542-217    N    1.00000000    0.04150995    0.50000134    -0.25570000
opls_542-218    N    0.50000000    0.45849005    0.50000134    -0.25580000
opls_542-219    N    1.00000000    0.95849005    0.50000134    -0.25570000
opls_542-220    N    0.46055007    0.50000000    0.31381063    -0.24010000
opls_542-221    N    0.96055007    0.00000000    0.31381063    -0.24010000
opls_542-222    N    0.53945015    0.50000000    0.68618937    -0.24000000
opls_542-223    N    0.03945015    0.00000000    0.68618937    -0.24010000
opls_236-224    O    0.73905012    0.80515008    0.29019082    -0.33530000
opls_236-225    O    0.23905012    0.30515008    0.29019082    -0.33520000
opls_236-226    O    0.26095008    0.80515008    0.70981186    -0.33530000
opls_236-227    O    0.76095008    0.30515008    0.70981186    -0.33530000
opls_236-228    O    0.26095008    0.19484992    0.70981186    -0.33530000
opls_236-229    O    0.76095008    0.69484992    0.70981186    -0.33530000
opls_236-230    O    0.73905012    0.19484992    0.29019082    -0.33530000
opls_236-231    O    0.23905012    0.69484992    0.29019082    -0.33530000
opls_547-232    H    0.47083995    0.60320004    0.37172971    0.04780000
opls_547-233    H    0.40382991    0.53044009    0.98700066    0.04780000
opls_146-234    H    0.54318001    0.60265008    0.00672093    0.04780000
opls_146-235    H    0.58067016    0.63973010    0.01980073    0.04780000
opls_146-236    H    0.64196998    0.58230991    0.51685999    0.04780000
opls_146-237    H    0.60389999    0.54562002    0.48534993    0.04780000
opls_144-238    H    0.60709012    0.66717993    0.88514073    0.02820000
opls_146-239    H    0.62153000    0.71557007    0.80303059    0.04780000
opls_146-240    H    0.65939012    0.75201990    0.69396967    0.04780000
opls_146-241    H    0.72415998    0.68683997    0.64635994    0.04790000
opls_146-242    H    0.68647001    0.65050000    0.74465021    0.04780000
opls_140-243    H    0.66458002    0.76894009    0.51356121    0.05250000
opls_140-244    H    0.68033997    0.78855991    0.12895016    0.05250000
opls_140-245    H    0.69650003    0.82566998    0.53954112    0.11570000
opls_140-246    H    0.68243016    0.80592993    0.93405120    0.11570000
opls_140-247    H    0.63387008    0.80896994    0.71754120    0.11560000
opls_140-248    H    0.64653011    0.82429996    0.28462044    0.11560000
opls_140-249    H    0.63726007    0.85040008    0.01712148    0.09740000
opls_140-250    H    0.63790009    0.86609992    0.56142035    0.09750000
opls_140-251    H    0.67163995    0.85930991    0.79143926    0.09740000
opls_547-252    H    0.97083995    0.10320004    0.37172971    0.04780000
opls_547-253    H    0.90382991    0.03044009    0.98700066    0.04780000
opls_146-254    H    0.04318001    0.10265008    0.00672093    0.04780000
opls_146-255    H    0.08067016    0.13973010    0.01980073    0.04780000
opls_146-256    H    0.14196998    0.08230991    0.51685999    0.04780000
opls_146-257    H    0.10389999    0.04562002    0.48534993    0.04790000
opls_144-258    H    0.10709012    0.16717993    0.88514073    0.02820000
opls_146-259    H    0.12153000    0.21557007    0.80303059    0.04780000
opls_146-260    H    0.15939012    0.25201990    0.69396967    0.04780000
opls_146-261    H    0.22415998    0.18683997    0.64635994    0.04780000
opls_146-262    H    0.18647001    0.15050000    0.74465021    0.04780000
opls_140-263    H    0.16458002    0.26894009    0.51356121    0.05250000
opls_140-264    H    0.18033997    0.28855991    0.12895016    0.05250000
opls_140-265    H    0.19650003    0.32566998    0.53954112    0.11560000
opls_140-266    H    0.18243016    0.30592993    0.93405120    0.11560000
opls_140-267    H    0.13387008    0.30896994    0.71754120    0.11560000
opls_140-268    H    0.14653011    0.32429996    0.28462044    0.11560000
opls_140-269    H    0.13726007    0.35040008    0.01712148    0.09740000
opls_140-270    H    0.13790009    0.36609992    0.56142035    0.09740000
opls_140-271    H    0.17163995    0.35930991    0.79143926    0.09740000
opls_547-272    H    0.52916005    0.60320004    0.62827029    0.04780000
opls_547-273    H    0.59617008    0.53044009    0.01300202    0.04780000
opls_146-274    H    0.45681999    0.60265008    0.99327907    0.04780000
opls_146-275    H    0.41933005    0.63973010    0.98019927    0.04780000
opls_146-276    H    0.35803002    0.58230991    0.48314001    0.04780000
opls_146-277    H    0.39610001    0.54562002    0.51465007    0.04780000
opls_144-278    H    0.39291009    0.66717993    0.11485927    0.02820000
opls_146-279    H    0.37847000    0.71557007    0.19696941    0.04780000
opls_146-280    H    0.34061009    0.75201990    0.30603033    0.04780000
opls_146-281    H    0.27584002    0.68683997    0.35364006    0.04790000
opls_146-282    H    0.31352999    0.65050000    0.25534979    0.04780000
opls_140-283    H    0.33541998    0.76894009    0.48644147    0.05250000
opls_140-284    H    0.31966003    0.78855991    0.87104984    0.05250000
opls_140-285    H    0.30349996    0.82566998    0.46046156    0.11560000
opls_140-286    H    0.31757005    0.80592993    0.06594880    0.11560000
opls_140-287    H    0.36612991    0.80896994    0.28246148    0.11560000
opls_140-288    H    0.35347010    0.82429996    0.71537956    0.11560000
opls_140-289    H    0.36273993    0.85040008    0.98288120    0.09740000
opls_140-290    H    0.36210012    0.86609992    0.43857965    0.09740000
opls_140-291    H    0.32836005    0.85930991    0.20856074    0.09740000
opls_547-292    H    0.02916005    0.10320004    0.62827029    0.04780000
opls_547-293    H    0.09617008    0.03044009    0.01300202    0.04780000
opls_146-294    H    0.95681999    0.10265008    0.99327907    0.04780000
opls_146-295    H    0.91933005    0.13973010    0.98019927    0.04780000
opls_146-296    H    0.85803002    0.08230991    0.48314001    0.04780000
opls_146-297    H    0.89610001    0.04562002    0.51465007    0.04780000
opls_144-298    H    0.89291009    0.16717993    0.11485927    0.02820000
opls_146-299    H    0.87847000    0.21557007    0.19696941    0.04780000
opls_146-300    H    0.84061009    0.25201990    0.30603033    0.04780000
opls_146-301    H    0.77584002    0.18683997    0.35364006    0.04780000
opls_146-302    H    0.81352999    0.15050000    0.25534979    0.04780000
opls_140-303    H    0.83541998    0.26894009    0.48644147    0.05250000
opls_140-304    H    0.81966003    0.28855991    0.87104984    0.05250000
opls_140-305    H    0.80349996    0.32566998    0.46046156    0.11560000
opls_140-306    H    0.81757005    0.30592993    0.06594880    0.11570000
opls_140-307    H    0.86612991    0.30896994    0.28246148    0.11560000
opls_140-308    H    0.85347010    0.32429996    0.71537956    0.11560000
opls_140-309    H    0.86273993    0.35040008    0.98288120    0.09740000
opls_140-310    H    0.86210012    0.36609992    0.43857965    0.09740000
opls_140-311    H    0.82836005    0.35930991    0.20856074    0.09740000
opls_547-312    H    0.52916005    0.39679996    0.62827029    0.04780000
opls_547-313    H    0.59617008    0.46955991    0.01300202    0.04780000
opls_146-314    H    0.45681999    0.39734992    0.99327907    0.04780000
opls_146-315    H    0.41933005    0.36026990    0.98019927    0.04780000
opls_146-316    H    0.35803002    0.41769009    0.48314001    0.04780000
opls_146-317    H    0.39610001    0.45437998    0.51465007    0.04780000
opls_144-318    H    0.39291009    0.33282007    0.11485927    0.02820000
opls_146-319    H    0.37847000    0.28442993    0.19696941    0.04780000
opls_146-320    H    0.34061009    0.24798010    0.30603033    0.04780000
opls_146-321    H    0.27584002    0.31316003    0.35364006    0.04790000
opls_146-322    H    0.31352999    0.34950000    0.25534979    0.04780000
opls_140-323    H    0.33541998    0.23105991    0.48644147    0.05250000
opls_140-324    H    0.31966003    0.21144009    0.87104984    0.05250000
opls_140-325    H    0.30349996    0.17433002    0.46046156    0.11560000
opls_140-326    H    0.31757005    0.19407007    0.06594880    0.11560000
opls_140-327    H    0.36612991    0.19103006    0.28246148    0.11560000
opls_140-328    H    0.35347010    0.17570004    0.71537956    0.11560000
opls_140-329    H    0.36273993    0.14959992    0.98288120    0.09740000
opls_140-330    H    0.36210012    0.13390008    0.43857965    0.09740000
opls_140-331    H    0.32836005    0.14069009    0.20856074    0.09740000
opls_547-332    H    0.02916005    0.89679996    0.62827029    0.04780000
opls_547-333    H    0.09617008    0.96955991    0.01300202    0.04780000
opls_146-334    H    0.95681999    0.89734992    0.99327907    0.04780000
opls_146-335    H    0.91933005    0.86026990    0.98019927    0.04780000
opls_146-336    H    0.85803002    0.91769009    0.48314001    0.04780000
opls_146-337    H    0.89610001    0.95437998    0.51465007    0.04780000
opls_144-338    H    0.89291009    0.83282007    0.11485927    0.02820000
opls_146-339    H    0.87847000    0.78442993    0.19696941    0.04780000
opls_146-340    H    0.84061009    0.74798010    0.30603033    0.04780000
opls_146-341    H    0.77584002    0.81316003    0.35364006    0.04780000
opls_146-342    H    0.81352999    0.84950000    0.25534979    0.04780000
opls_140-343    H    0.83541998    0.73105991    0.48644147    0.05250000
opls_140-344    H    0.81966003    0.71144009    0.87104984    0.05250000
opls_140-345    H    0.80349996    0.67433002    0.46046156    0.11570000
opls_140-346    H    0.81757005    0.69407007    0.06594880    0.11560000
opls_140-347    H    0.86612991    0.69103006    0.28246148    0.11560000
opls_140-348    H    0.85347010    0.67570004    0.71537956    0.11560000
opls_140-349    H    0.86273993    0.64959992    0.98288120    0.09740000
opls_140-350    H    0.86210012    0.63390008    0.43857965    0.09740000
opls_140-351    H    0.82836005    0.64069009    0.20856074    0.09740000
opls_547-352    H    0.47083995    0.39679996    0.37172971    0.04780000
opls_547-353    H    0.40382991    0.46955991    0.98700066    0.04780000
opls_146-354    H    0.54318001    0.39734992    0.00672093    0.04790000
opls_146-355    H    0.58067016    0.36026990    0.01980073    0.04790000
opls_146-356    H    0.64196998    0.41769009    0.51685999    0.04780000
opls_146-357    H    0.60389999    0.45437998    0.48534993    0.04780000
opls_144-358    H    0.60709012    0.33282007    0.88514073    0.02820000
opls_146-359    H    0.62153000    0.28442993    0.80303059    0.04780000
opls_146-360    H    0.65939012    0.24798010    0.69396967    0.04780000
opls_146-361    H    0.72415998    0.31316003    0.64635994    0.04780000
opls_146-362    H    0.68647001    0.34950000    0.74465021    0.04780000
opls_140-363    H    0.66458002    0.23105991    0.51356121    0.05250000
opls_140-364    H    0.68033997    0.21144009    0.12895016    0.05250000
opls_140-365    H    0.69650003    0.17433002    0.53954112    0.11560000
opls_140-366    H    0.68243016    0.19407007    0.93405120    0.11560000
opls_140-367    H    0.63387008    0.19103006    0.71754120    0.11560000
opls_140-368    H    0.64653011    0.17570004    0.28462044    0.11570000
opls_140-369    H    0.63726007    0.14959992    0.01712148    0.09740000
opls_140-370    H    0.63790009    0.13390008    0.56142035    0.09740000
opls_140-371    H    0.67163995    0.14069009    0.79143926    0.09740000
opls_547-372    H    0.97083995    0.89679996    0.37172971    0.04780000
opls_547-373    H    0.90382991    0.96955991    0.98700066    0.04780000
opls_146-374    H    0.04318001    0.89734992    0.00672093    0.04780000
opls_146-375    H    0.08067016    0.86026990    0.01980073    0.04780000
opls_146-376    H    0.14196998    0.91769009    0.51685999    0.04780000
opls_146-377    H    0.10389999    0.95437998    0.48534993    0.04780000
opls_144-378    H    0.10709012    0.83282007    0.88514073    0.02820000
opls_146-379    H    0.12153000    0.78442993    0.80303059    0.04780000
opls_146-380    H    0.15939012    0.74798010    0.69396967    0.04790000
opls_146-381    H    0.22415998    0.81316003    0.64635994    0.04780000
opls_146-382    H    0.18647001    0.84950000    0.74465021    0.04780000
opls_140-383    H    0.16458002    0.73105991    0.51356121    0.05250000
opls_140-384    H    0.18033997    0.71144009    0.12895016    0.05250000
opls_140-385    H    0.19650003    0.67433002    0.53954112    0.11560000
opls_140-386    H    0.18243016    0.69407007    0.93405120    0.11560000
opls_140-387    H    0.13387008    0.69103006    0.71754120    0.11560000
opls_140-388    H    0.14653011    0.67570004    0.28462044    0.11560000
opls_140-389    H    0.13726007    0.64959992    0.01712148    0.09740000
opls_140-390    H    0.13790009    0.63390008    0.56142035    0.09740000
opls_140-391    H    0.17163995    0.64069009    0.79143926    0.09740000
