#======================================================================
# Crystal Data Generated By AuToFF
#----------------------------------------------------------------------

data_AuToFF_phase_1

_cell_length_a                         44.3328
_cell_length_b                         44.3328
_cell_length_c                         3.3890
_cell_angle_alpha                      90.00
_cell_angle_beta                       90.00
_cell_angle_gamma                      120.00
_symmetry_space_group_name_H-M_alt     'P 1'
_symmetry_space_group_IT_number        1

loop_
_space_group_symop_operation_xyz
   'x, y, z'

loop_
   _atom_site_label
   _atom_site_type_symbol
   _atom_site_fract_x
   _atom_site_fract_y
   _atom_site_fract_z
   _atom_site_charge
opls_700-0    C    0.96404000    0.48877005    0.63716140    -0.13610000
opls_166-1    C    0.97926998    0.46802999    0.67799056    0.20900000
opls_145-2    C    0.01532993    0.48376997    0.66982886    -0.23410000
opls_234-3    C    0.92622003    0.47390002    0.60868988    0.40480000
opls_142-4    C    0.84970003    0.39892997    0.27355857    0.02940000
opls_700-5    C    0.81252011    0.38588005    0.25414872    0.05510000
opls_145-6    C    0.79869994    0.40640992    0.37123045    -0.20680000
opls_145-7    C    0.76336010    0.39351002    0.36072883    -0.20710000
opls_700-8    C    0.74074001    0.36002998    0.21946002    0.06290000
opls_145-9    C    0.75515010    0.33989003    0.09478017    -0.18400000
opls_145-10    C    0.79049004    0.35250003    0.11853939    -0.20830000
opls_700-11    C    0.70265998    0.34630000    0.20645028    0.06870000
opls_145-12    C    0.68927006    0.36869008    0.20432871    -0.13730000
opls_700-13    C    0.03632004    0.51959989    0.64223960    -0.13510000
opls_166-14    C    0.02101996    0.54045013    0.64259073    0.19450000
opls_145-15    C    0.98498010    0.52467004    0.63727058    -0.23410000
opls_234-16    C    0.07414001    0.53415007    0.61503983    0.40470000
opls_142-17    C    0.15153010    0.60752011    0.26874889    0.02930000
opls_700-18    C    0.18847986    0.61935993    0.24876070    0.05510000
opls_145-19    C    0.20117015    0.59786010    0.36549130    -0.20670000
opls_145-20    C    0.23627007    0.60950014    0.35354972    -0.20700000
opls_700-21    C    0.25977007    0.64268012    0.21123930    0.06290000
opls_145-22    C    0.24651012    0.66384005    0.08727943    -0.18400000
opls_145-23    C    0.21139997    0.65248000    0.11226911    -0.20800000
opls_700-24    C    0.29758995    0.65502003    0.19666863    0.07010000
opls_145-25    C    0.30968000    0.63155006    0.19426084    -0.13730000
opls_182-26    C    0.03041009    0.59774002    0.49740041    0.02510000
opls_182-27    C    0.97168998    0.41242997    0.89408085    0.02790000
opls_136-28    C    0.06168998    0.63261014    0.39259073    -0.20730000
opls_210-29    C    0.05216000    0.65923013    0.24946887    -0.22260000
opls_136-30    C    0.94196006    0.37660995    0.00048097    -0.20730000
opls_210-31    C    0.95380002    0.35171005    0.14247861    -0.22270000
opls_210-32    C    0.94057013    0.28772003    0.36899970    -0.15740000
opls_135-33    C    0.91607996    0.25144993    0.51976099    -0.41880000
opls_210-34    C    0.06960996    0.72447011    0.02282089    -0.15740000
opls_135-35    C    0.09584005    0.76020001    0.87205960    -0.41890000
opls_700-36    C    0.51122997    0.47527005    0.63716140    -0.13610000
opls_166-37    C    0.53197007    0.51124010    0.67799056    0.21090000
opls_145-38    C    0.51623003    0.53156004    0.66982886    -0.23410000
opls_234-39    C    0.52609999    0.45231997    0.60868988    0.40470000
opls_142-40    C    0.60107003    0.45076996    0.27355857    0.02940000
opls_700-41    C    0.61412008    0.42663999    0.25414872    0.05510000
opls_145-42    C    0.59359001    0.39229001    0.37123045    -0.20680000
opls_145-43    C    0.60649003    0.36984992    0.36072883    -0.20710000
opls_700-44    C    0.63997003    0.38071014    0.21946002    0.06290000
opls_145-45    C    0.66011005    0.41525989    0.09478017    -0.18400000
opls_145-46    C    0.64750015    0.43799014    0.11853939    -0.20830000
opls_700-47    C    0.65369997    0.35636008    0.20645028    0.06870000
opls_145-48    C    0.63131005    0.32057990    0.20432871    -0.13730000
opls_700-49    C    0.48039987    0.51671996    0.64223960    -0.13510000
opls_166-50    C    0.45954993    0.48056993    0.64259073    0.19450000
opls_145-51    C    0.47532986    0.46030990    0.63727058    -0.23410000
opls_234-52    C    0.46584993    0.53998989    0.61503983    0.40460000
opls_142-53    C    0.39247997    0.54401012    0.26874889    0.02930000
opls_700-54    C    0.38064008    0.56911995    0.24876070    0.05510000
opls_145-55    C    0.40213997    0.60331000    0.36549130    -0.20670000
opls_145-56    C    0.39049995    0.62677007    0.35354972    -0.20710000
opls_700-57    C    0.35731995    0.61709000    0.21123930    0.06290000
opls_145-58    C    0.33616003    0.58266996    0.08727943    -0.18400000
opls_145-59    C    0.34751999    0.55892000    0.11226911    -0.20800000
opls_700-60    C    0.34498007    0.64256995    0.19666863    0.07010000
opls_145-61    C    0.36845003    0.67813003    0.19426084    -0.13730000
opls_182-62    C    0.40226007    0.43266995    0.49740041    0.02510000
opls_182-63    C    0.58756990    0.55925990    0.89408085    0.02790000
opls_136-64    C    0.36739003    0.42908000    0.39259073    -0.20730000
opls_210-65    C    0.34076988    0.39292997    0.24946887    -0.22270000
opls_136-66    C    0.62339001    0.56535002    0.00048097    -0.20730000
opls_210-67    C    0.64828993    0.60209000    0.14247861    -0.22270000
opls_210-68    C    0.71228000    0.65285012    0.36899970    -0.15740000
opls_135-69    C    0.74854995    0.66463003    0.51976099    -0.41880000
opls_210-70    C    0.27553006    0.34513990    0.02282089    -0.15740000
opls_135-71    C    0.23979992    0.33564007    0.87205960    -0.41890000
opls_700-72    C    0.52473003    0.03595989    0.63716140    -0.13610000
opls_166-73    C    0.48875995    0.02072990    0.67799056    0.20900000
opls_145-74    C    0.46844005    0.98466999    0.66982886    -0.23410000
opls_234-75    C    0.54767998    0.07378000    0.60868988    0.40470000
opls_142-76    C    0.54922995    0.15030007    0.27355857    0.02940000
opls_700-77    C    0.57336004    0.18747996    0.25414872    0.05510000
opls_145-78    C    0.60771004    0.20130007    0.37123045    -0.20680000
opls_145-79    C    0.63015010    0.23664006    0.36072883    -0.20710000
opls_700-80    C    0.61929009    0.25926014    0.21946002    0.06290000
opls_145-81    C    0.58474008    0.24485008    0.09478017    -0.18400000
opls_145-82    C    0.56200994    0.20951009    0.11853939    -0.20830000
opls_700-83    C    0.64364005    0.29733993    0.20645028    0.06870000
opls_145-84    C    0.67942011    0.31073001    0.20432871    -0.13730000
opls_700-85    C    0.48328009    0.96368015    0.64223960    -0.13510000
opls_166-86    C    0.51942988    0.97897994    0.64259073    0.19450000
opls_145-87    C    0.53969004    0.01502006    0.63727058    -0.23400000
opls_234-88    C    0.46001006    0.92586004    0.61503983    0.40460000
opls_142-89    C    0.45599006    0.84847003    0.26874889    0.02930000
opls_700-90    C    0.43088006    0.81152013    0.24876070    0.05510000
opls_145-91    C    0.39668988    0.79882990    0.36549130    -0.20670000
opls_145-92    C    0.37323011    0.76373005    0.35354972    -0.20710000
opls_700-93    C    0.38291011    0.74023014    0.21123930    0.06290000
opls_145-94    C    0.41733007    0.75348999    0.08727943    -0.18400000
opls_145-95    C    0.44108004    0.78860000    0.11226911    -0.20800000
opls_700-96    C    0.35742998    0.70241003    0.19666863    0.07010000
opls_145-97    C    0.32186997    0.69031991    0.19426084    -0.13720000
opls_182-98    C    0.56733007    0.96959003    0.49740041    0.02510000
opls_182-99    C    0.44074012    0.02831013    0.89408085    0.02790000
opls_136-100    C    0.57092012    0.93831012    0.39259073    -0.20730000
opls_210-101    C    0.60706990    0.94783990    0.24946887    -0.22260000
opls_136-102    C    0.43464993    0.05804003    0.00048097    -0.20730000
opls_210-103    C    0.39791005    0.04619995    0.14247861    -0.22270000
opls_210-104    C    0.34715000    0.05943011    0.36899970    -0.15740000
opls_135-105    C    0.33537009    0.08392005    0.51976099    -0.41870000
opls_210-106    C    0.65485998    0.93038999    0.02282089    -0.15740000
opls_135-107    C    0.66436003    0.90415992    0.87205960    -0.41890000
opls_236-108    O    0.91325998    0.49027005    0.73532015    -0.41210000
opls_179-109    O    0.95781000    0.43220997    0.72763057    -0.20900000
opls_236-110    O    0.08683004    0.51778994    0.75036884    -0.41230000
opls_179-111    O    0.04202993    0.57641991    0.67598112    -0.20900000
opls_236-112    O    0.50973001    0.42299014    0.73532015    -0.41210000
opls_179-113    O    0.56778993    0.52559989    0.72763057    -0.20900000
opls_236-114    O    0.48220997    0.56903999    0.75036884    -0.41220000
opls_179-115    O    0.42358002    0.46561004    0.67598112    -0.20900000
opls_236-116    O    0.57701014    0.08674007    0.73532015    -0.41190000
opls_179-117    O    0.47439994    0.04218988    0.72763057    -0.20900000
opls_236-118    O    0.43095999    0.91317007    0.75036884    -0.41230000
opls_179-119    O    0.53439005    0.95797004    0.67598112    -0.20890000
opls_238-120    N    0.90573000    0.44270007    0.43437887    -0.26020000
opls_750-121    N    0.87012009    0.42920997    0.41614045    -0.12000000
opls_238-122    N    0.09500006    0.56489005    0.43310121    -0.26180000
opls_750-123    N    0.13049004    0.57762012    0.41583948    -0.11510000
opls_238-124    N    0.55729993    0.46302991    0.43437887    -0.26020000
opls_750-125    N    0.57078993    0.44090992    0.41614045    -0.12000000
opls_238-126    N    0.43510993    0.53011005    0.43310121    -0.26170000
opls_750-127    N    0.42237998    0.55286999    0.41583948    -0.11510000
opls_238-128    N    0.53697008    0.09427002    0.43437887    -0.26020000
opls_750-129    N    0.55908999    0.12988011    0.41614045    -0.12000000
opls_238-130    N    0.46989001    0.90499990    0.43310121    -0.26180000
opls_750-131    N    0.44713011    0.86951015    0.41583948    -0.11510000
opls_910-132    H    0.91638993    0.42964989    0.29190027    0.20540000
opls_144-133    H    0.85997007    0.38306992    0.16804072    0.09650000
opls_146-134    H    0.81510987    0.43223992    0.48143995    0.22460000
opls_146-135    H    0.75418995    0.40980999    0.47843907    0.10080000
opls_146-136    H    0.73966999    0.31467002    0.96727058    0.10090000
opls_146-137    H    0.80073002    0.33638994    0.02223960    0.22450000
opls_146-138    H    0.70667005    0.39592997    0.20355857    0.22610000
opls_910-139    H    0.08477012    0.57785011    0.27995869    0.23330000
opls_144-140    H    0.14195987    0.62385993    0.15920921    0.09650000
opls_146-141    H    0.18406986    0.57219991    0.47622012    0.22450000
opls_146-142    H    0.24456989    0.59248989    0.47102095    0.10080000
opls_146-143    H    0.26269997    0.68891003    0.95935084    0.22610000
opls_146-144    H    0.20203998    0.66933006    0.01622898    0.22450000
opls_146-145    H    0.29148012    0.60450005    0.19326940    0.22610000
opls_146-146    H    0.02738013    0.46812011    0.67768958    0.10050000
opls_146-147    H    0.97294995    0.54036990    0.63609914    0.10080000
opls_185-148    H    0.01212006    0.60099007    0.68316908    0.07680000
opls_185-149    H    0.01486004    0.58477006    0.23889938    0.07940000
opls_185-150    H    0.98715993    0.42610995    0.14938035    0.07420000
opls_185-151    H    0.99039003    0.41042988    0.70316908    0.07820000
opls_140-152    H    0.07751001    0.62761006    0.18596931    0.09040000
opls_140-153    H    0.07991010    0.64452002    0.63355857    0.10580000
opls_140-154    H    0.03492007    0.66317014    0.44280909    0.10740000
opls_140-155    H    0.03570006    0.64899007    0.99683092    0.10090000
opls_140-156    H    0.92388986    0.36379991    0.76025081    0.10610000
opls_140-157    H    0.92530002    0.38029001    0.20789909    0.09040000
opls_140-158    H    0.97009005    0.36267992    0.39491000    0.10090000
opls_140-159    H    0.97192015    0.34921014    0.94889053    0.10580000
opls_140-160    H    0.96001985    0.30402989    0.58454116    0.10560000
opls_140-161    H    0.95650010    0.28573010    0.13830924    0.09480000
opls_140-162    H    0.93078006    0.24150002    0.68154913    0.11090000
opls_140-163    H    0.90247000    0.23305012    0.27899970    0.11410000
opls_140-164    H    0.89591002    0.25144993    0.70781056    0.11290000
opls_140-165    H    0.05447006    0.72771989    0.25352906    0.10720000
opls_140-166    H    0.04971006    0.70904009    0.80730894    0.10620000
opls_140-167    H    0.11522006    0.75870001    0.68400118    0.11290000
opls_140-168    H    0.11027990    0.77822997    0.11280909    0.11480000
opls_140-169    H    0.08245008    0.77159001    0.71027147    0.11230000
opls_910-170    H    0.57035003    0.48674001    0.29190027    0.20540000
opls_144-171    H    0.61693005    0.47690002    0.16804072    0.09650000
opls_146-172    H    0.56775992    0.38286989    0.48143995    0.22450000
opls_146-173    H    0.59019006    0.34438013    0.47843907    0.10080000
opls_146-174    H    0.68533011    0.42500012    0.96727058    0.10080000
opls_146-175    H    0.66360994    0.46434003    0.02223960    0.22450000
opls_146-176    H    0.60407002    0.31073991    0.20355857    0.22630000
opls_910-177    H    0.42215004    0.50692008    0.27995869    0.23330000
opls_144-178    H    0.37614000    0.51809989    0.15920921    0.09650000
opls_146-179    H    0.42780012    0.61187008    0.47622012    0.22460000
opls_146-180    H    0.40750989    0.65207993    0.47102095    0.10080000
opls_146-181    H    0.31108997    0.57379003    0.95935084    0.22620000
opls_146-182    H    0.33066990    0.53270998    0.01622898    0.22450000
opls_146-183    H    0.39550003    0.68698000    0.19326940    0.22610000
opls_146-184    H    0.53187998    0.55925990    0.67768958    0.10050000
opls_146-185    H    0.45962996    0.43258009    0.63609914    0.10080000
opls_185-186    H    0.39901004    0.41113001    0.68316908    0.07680000
opls_185-187    H    0.41523000    0.43009007    0.23889938    0.07940000
opls_185-188    H    0.57388999    0.56105006    0.14938035    0.07420000
opls_185-189    H    0.58956998    0.57996011    0.70316908    0.07820000
opls_140-190    H    0.37239006    0.44990002    0.18596931    0.09040000
opls_140-191    H    0.35547987    0.43538995    0.63355857    0.10580000
opls_140-192    H    0.33683004    0.37174999    0.44280909    0.10750000
opls_140-193    H    0.35101012    0.38671014    0.99683092    0.10090000
opls_140-194    H    0.63620003    0.56008999    0.76025081    0.10600000
opls_140-195    H    0.61971002    0.54501003    0.20789909    0.09040000
opls_140-196    H    0.63732003    0.60740993    0.39491000    0.10090000
opls_140-197    H    0.65078990    0.62270999    0.94889053    0.10580000
opls_140-198    H    0.69596995    0.65598999    0.58454116    0.10560000
opls_140-199    H    0.71426988    0.67076990    0.13830924    0.09480000
opls_140-200    H    0.75850001    0.68928014    0.68154913    0.11090000
opls_140-201    H    0.76694997    0.66941992    0.27899970    0.11410000
opls_140-202    H    0.74855008    0.64446012    0.70781056    0.11290000
opls_140-203    H    0.27227991    0.32674998    0.25352906    0.10720000
opls_140-204    H    0.29095997    0.34067011    0.80730894    0.10620000
opls_140-205    H    0.24130001    0.35652000    0.68400118    0.11290000
opls_140-206    H    0.22177002    0.33205012    0.11280909    0.11490000
opls_140-207    H    0.22841004    0.31085999    0.71027147    0.11230000
opls_910-208    H    0.51326004    0.08361010    0.29190027    0.20540000
opls_144-209    H    0.52310010    0.14003005    0.16804072    0.09650000
opls_146-210    H    0.61713007    0.18488993    0.48143995    0.22450000
opls_146-211    H    0.65562000    0.24580988    0.47843907    0.10080000
opls_146-212    H    0.57500003    0.26033011    0.96727058    0.10090000
opls_146-213    H    0.53566003    0.19927003    0.02223960    0.22450000
opls_146-214    H    0.68926016    0.29333012    0.20355857    0.22610000
opls_910-215    H    0.49307997    0.91523007    0.27995869    0.23330000
opls_144-216    H    0.48190000    0.85803993    0.15920921    0.09650000
opls_146-217    H    0.38813003    0.81593001    0.47622012    0.22450000
opls_146-218    H    0.34791986    0.75542991    0.47102095    0.10080000
opls_146-219    H    0.42621006    0.73729994    0.95935084    0.22620000
opls_146-220    H    0.46728990    0.79795996    0.01622898    0.22450000
opls_146-221    H    0.31302008    0.70851994    0.19326940    0.22610000
opls_146-222    H    0.44073989    0.97261998    0.67768958    0.10050000
opls_146-223    H    0.56742009    0.02705001    0.63609914    0.10080000
opls_185-224    H    0.58886990    0.98787993    0.68316908    0.07680000
opls_185-225    H    0.56991009    0.98514013    0.23889938    0.07940000
opls_185-226    H    0.43895009    0.01283999    0.14938035    0.07420000
opls_185-227    H    0.42004000    0.00961000    0.70316908    0.07820000
opls_140-228    H    0.55009994    0.92248992    0.18596931    0.09040000
opls_140-229    H    0.56461003    0.92009003    0.63355857    0.10580000
opls_140-230    H    0.62825001    0.96508013    0.44280909    0.10740000
opls_140-231    H    0.61328995    0.96430005    0.99683092    0.10090000
opls_140-232    H    0.43991011    0.07611010    0.76025081    0.10610000
opls_140-233    H    0.45498996    0.07469995    0.20789909    0.09040000
opls_140-234    H    0.39259001    0.02990988    0.39491000    0.10090000
opls_140-235    H    0.37728995    0.02807988    0.94889053    0.10580000
opls_140-236    H    0.34400997    0.03998012    0.58454116    0.10560000
opls_140-237    H    0.32923002    0.04350000    0.13830924    0.09480000
opls_140-238    H    0.31072006    0.06922010    0.68154913    0.11100000
opls_140-239    H    0.33058003    0.09752996    0.27899970    0.11410000
opls_140-240    H    0.35553991    0.10408996    0.70781056    0.11290000
opls_140-241    H    0.67325003    0.94553012    0.25352906    0.10720000
opls_140-242    H    0.65933010    0.95029006    0.80730894    0.10620000
opls_140-243    H    0.64347993    0.88477999    0.68400118    0.11290000
opls_140-244    H    0.66794986    0.88971991    0.11280909    0.11480000
opls_140-245    H    0.68914010    0.91755000    0.71027147    0.11230000
opls_202-246    S    0.91649005    0.30908989    0.22907937    0.00880000
opls_202-247    S    0.09117014    0.70057013    0.16272057    0.00880000
opls_202-248    S    0.69090994    0.60740004    0.22907937    0.00880000
opls_202-249    S    0.29942997    0.39060014    0.16272057    0.00880000
opls_202-250    S    0.39260001    0.08351008    0.22907937    0.00880000
opls_202-251    S    0.60940002    0.90883000    0.16272057    0.00880000
