#======================================================================
# Crystal Data Generated By AuToFF
#----------------------------------------------------------------------

data_AuToFF_phase_1

_cell_length_a                         18.6595
_cell_length_b                         38.3636
_cell_length_c                         3.4543
_cell_angle_alpha                      90.00
_cell_angle_beta                       90.00
_cell_angle_gamma                      90.00
_symmetry_space_group_name_H-M_alt     'P 1'
_symmetry_space_group_IT_number        1

loop_
_space_group_symop_operation_xyz
   'x, y, z'

loop_
   _atom_site_label
   _atom_site_type_symbol
   _atom_site_fract_x
   _atom_site_fract_y
   _atom_site_fract_z
   _atom_site_charge
opls_700-0    C    0.93170985    0.07841000    0.50000000    0.02220000
opls_700-1    C    0.93402985    0.03954008    0.50000000    0.02660000
opls_145-2    C    0.87156998    0.01831997    0.50000000    -0.11850000
opls_700-3    C    0.86852006    0.89672997    0.50000000    0.07310000
opls_145-4    C    0.79314987    0.90629008    0.50000000    -0.08150000
opls_145-5    C    0.73696026    0.88185989    0.50000000    -0.11130000
opls_145-6    C    0.74777995    0.84435011    0.50000000    0.21630000
opls_145-7    C    0.82048983    0.83336991    0.50000000    -0.09620000
opls_145-8    C    0.87713015    0.85775996    0.50000000    -0.08430000
opls_142-9    C    0.62195021    0.82859012    0.50000000    0.03820000
opls_521-10    C    0.56326000    0.80245988    0.50000000    0.07090000
opls_522-11    C    0.43501005    0.76449994    0.50000000    -0.10520000
opls_700-12    C    0.43170985    0.57841000    0.50000000    0.02220000
opls_700-13    C    0.43402985    0.53954008    0.50000000    0.02660000
opls_145-14    C    0.37156998    0.51831997    0.50000000    -0.11840000
opls_700-15    C    0.36852006    0.39672997    0.50000000    0.07310000
opls_145-16    C    0.29314987    0.40629008    0.50000000    -0.08150000
opls_145-17    C    0.23696026    0.38185989    0.50000000    -0.11130000
opls_145-18    C    0.24777995    0.34435011    0.50000000    0.21630000
opls_145-19    C    0.32048983    0.33336991    0.50000000    -0.09620000
opls_145-20    C    0.37713015    0.35775996    0.50000000    -0.08430000
opls_142-21    C    0.12195021    0.32859012    0.50000000    0.03820000
opls_521-22    C    0.06326000    0.30245988    0.50000000    0.07090000
opls_522-23    C    0.93501005    0.26449994    0.50000000    -0.10520000
opls_700-24    C    0.06829015    0.92159000    0.50000000    0.02220000
opls_700-25    C    0.06597015    0.96045992    0.50000000    0.02660000
opls_145-26    C    0.12843002    0.98168003    0.50000000    -0.11850000
opls_700-27    C    0.13147994    0.10327003    0.50000000    0.07310000
opls_145-28    C    0.20685013    0.09370992    0.50000000    -0.08150000
opls_145-29    C    0.26303974    0.11814011    0.50000000    -0.11140000
opls_145-30    C    0.25222005    0.15564989    0.50000000    0.21630000
opls_145-31    C    0.17951017    0.16663009    0.50000000    -0.09620000
opls_145-32    C    0.12286985    0.14224004    0.50000000    -0.08430000
opls_142-33    C    0.37804979    0.17140988    0.50000000    0.03820000
opls_521-34    C    0.43674000    0.19754012    0.50000000    0.07090000
opls_522-35    C    0.56498995    0.23550006    0.50000000    -0.10520000
opls_700-36    C    0.56829015    0.42159000    0.50000000    0.02220000
opls_700-37    C    0.56597015    0.46045992    0.50000000    0.02660000
opls_145-38    C    0.62843002    0.48168003    0.50000000    -0.11850000
opls_700-39    C    0.63147994    0.60327003    0.50000000    0.07310000
opls_145-40    C    0.70685013    0.59370992    0.50000000    -0.08150000
opls_145-41    C    0.76303974    0.61814011    0.50000000    -0.11140000
opls_145-42    C    0.75222005    0.65564989    0.50000000    0.21630000
opls_145-43    C    0.67951017    0.66663009    0.50000000    -0.09620000
opls_145-44    C    0.62286985    0.64224004    0.50000000    -0.08430000
opls_142-45    C    0.87804979    0.67140988    0.50000000    0.03820000
opls_521-46    C    0.93674000    0.69754012    0.50000000    0.07090000
opls_522-47    C    0.06498995    0.73550006    0.50000000    -0.10520000
opls_700-48    C    0.06829015    0.07841000    0.50000000    0.02220000
opls_700-49    C    0.06597015    0.03954008    0.50000000    0.02660000
opls_145-50    C    0.12843002    0.01831997    0.50000000    -0.11850000
opls_700-51    C    0.13147994    0.89672997    0.50000000    0.07310000
opls_145-52    C    0.20685013    0.90629008    0.50000000    -0.08150000
opls_145-53    C    0.26303974    0.88185989    0.50000000    -0.11140000
opls_145-54    C    0.25222005    0.84435011    0.50000000    0.21630000
opls_145-55    C    0.17951017    0.83336991    0.50000000    -0.09620000
opls_145-56    C    0.12286985    0.85775996    0.50000000    -0.08430000
opls_142-57    C    0.37804979    0.82859012    0.50000000    0.03820000
opls_521-58    C    0.43674000    0.80245988    0.50000000    0.07090000
opls_522-59    C    0.56498995    0.76449994    0.50000000    -0.10520000
opls_700-60    C    0.56829015    0.57841000    0.50000000    0.02220000
opls_700-61    C    0.56597015    0.53954008    0.50000000    0.02660000
opls_145-62    C    0.62843002    0.51831997    0.50000000    -0.11850000
opls_700-63    C    0.63147994    0.39672997    0.50000000    0.07310000
opls_145-64    C    0.70685013    0.40629008    0.50000000    -0.08150000
opls_145-65    C    0.76303974    0.38185989    0.50000000    -0.11140000
opls_145-66    C    0.75222005    0.34435011    0.50000000    0.21630000
opls_145-67    C    0.67951017    0.33336991    0.50000000    -0.09620000
opls_145-68    C    0.62286985    0.35775996    0.50000000    -0.08430000
opls_142-69    C    0.87804979    0.32859012    0.50000000    0.03820000
opls_521-70    C    0.93674000    0.30245988    0.50000000    0.07090000
opls_522-71    C    0.06498995    0.26449994    0.50000000    -0.10520000
opls_700-72    C    0.93170985    0.92159000    0.50000000    0.02220000
opls_700-73    C    0.93402985    0.96045992    0.50000000    0.02660000
opls_145-74    C    0.87156998    0.98168003    0.50000000    -0.11850000
opls_700-75    C    0.86852006    0.10327003    0.50000000    0.07320000
opls_145-76    C    0.79314987    0.09370992    0.50000000    -0.08150000
opls_145-77    C    0.73696026    0.11814011    0.50000000    -0.11140000
opls_145-78    C    0.74777995    0.15564989    0.50000000    0.21630000
opls_145-79    C    0.82048983    0.16663009    0.50000000    -0.09620000
opls_145-80    C    0.87713015    0.14224004    0.50000000    -0.08430000
opls_142-81    C    0.62195021    0.17140988    0.50000000    0.03820000
opls_521-82    C    0.56326000    0.19754012    0.50000000    0.07100000
opls_522-83    C    0.43501005    0.23550006    0.50000000    -0.10520000
opls_700-84    C    0.43170985    0.42159000    0.50000000    0.02220000
opls_700-85    C    0.43402985    0.46045992    0.50000000    0.02660000
opls_145-86    C    0.37156998    0.48168003    0.50000000    -0.11840000
opls_700-87    C    0.36852006    0.60327003    0.50000000    0.07310000
opls_145-88    C    0.29314987    0.59370992    0.50000000    -0.08150000
opls_145-89    C    0.23696026    0.61814011    0.50000000    -0.11140000
opls_145-90    C    0.24777995    0.65564989    0.50000000    0.21640000
opls_145-91    C    0.32048983    0.66663009    0.50000000    -0.09620000
opls_145-92    C    0.37713015    0.64224004    0.50000000    -0.08430000
opls_142-93    C    0.12195021    0.67140988    0.50000000    0.03820000
opls_521-94    C    0.06326000    0.69754012    0.50000000    0.07090000
opls_522-95    C    0.93501005    0.73550006    0.50000000    -0.10520000
opls_700-96    C    0.00000000    0.01947992    0.50000000    -0.04230000
opls_145-97    C    0.00000000    0.09439990    0.50000000    -0.08440000
opls_523-98    C    0.00000000    0.24535992    0.50000000    -0.08060000
opls_700-99    C    0.50000000    0.51947992    0.50000000    -0.04230000
opls_145-100    C    0.50000000    0.59439990    0.50000000    -0.08440000
opls_523-101    C    0.50000000    0.74535992    0.50000000    -0.08060000
opls_700-102    C    0.00000000    0.98052008    0.50000000    -0.04230000
opls_145-103    C    0.00000000    0.90560010    0.50000000    -0.08440000
opls_523-104    C    0.00000000    0.75464008    0.50000000    -0.08050000
opls_700-105    C    0.50000000    0.48052008    0.50000000    -0.04230000
opls_145-106    C    0.50000000    0.40560010    0.50000000    -0.08440000
opls_523-107    C    0.50000000    0.25464008    0.50000000    -0.08060000
opls_750-108    N    0.69002010    0.81897997    0.50000000    -0.21470000
opls_750-109    N    0.19002010    0.31897997    0.50000000    -0.21480000
opls_750-110    N    0.30997990    0.18102003    0.50000000    -0.21490000
opls_750-111    N    0.80997990    0.68102003    0.50000000    -0.21490000
opls_750-112    N    0.30997990    0.81897997    0.50000000    -0.21480000
opls_750-113    N    0.80997990    0.31897997    0.50000000    -0.21490000
opls_750-114    N    0.69002010    0.18102003    0.50000000    -0.21490000
opls_750-115    N    0.19002010    0.68102003    0.50000000    -0.21490000
opls_520-116    N    0.00000000    0.32038000    0.50000000    -0.28420000
opls_520-117    N    0.50000000    0.82038000    0.50000000    -0.28430000
opls_520-118    N    0.00000000    0.67962000    0.50000000    -0.28430000
opls_520-119    N    0.50000000    0.17962000    0.50000000    -0.28430000
opls_146-120    H    0.81678019    0.02821007    0.50000000    0.12450000
opls_146-121    H    0.76982020    0.93316008    0.50000000    0.13320000
opls_146-122    H    0.83307002    0.80428010    0.50000000    0.04800000
opls_146-123    H    0.92971998    0.84389995    0.50000000    0.04850000
opls_146-124    H    0.31810016    0.89337002    0.50000000    0.08970000
opls_144-125    H    0.60362979    0.85693001    0.50000000    0.02870000
opls_525-126    H    0.38262976    0.75035998    0.50000000    0.08940000
opls_146-127    H    0.31678019    0.52821007    0.50000000    0.12440000
opls_146-128    H    0.26982020    0.43316008    0.50000000    0.13320000
opls_146-129    H    0.33307002    0.30428010    0.50000000    0.04800000
opls_146-130    H    0.42971998    0.34389995    0.50000000    0.04850000
opls_146-131    H    0.81810016    0.39337002    0.50000000    0.08970000
opls_144-132    H    0.10362979    0.35693001    0.50000000    0.02870000
opls_525-133    H    0.88262976    0.25035998    0.50000000    0.08940000
opls_146-134    H    0.18321981    0.97178993    0.50000000    0.12460000
opls_146-135    H    0.23017980    0.06683992    0.50000000    0.13330000
opls_146-136    H    0.16692998    0.19571990    0.50000000    0.04800000
opls_146-137    H    0.07028002    0.15610005    0.50000000    0.04850000
opls_146-138    H    0.68189984    0.10662998    0.50000000    0.08980000
opls_144-139    H    0.39637021    0.14306999    0.50000000    0.02870000
opls_525-140    H    0.61737024    0.24964002    0.50000000    0.08940000
opls_146-141    H    0.68321981    0.47178993    0.50000000    0.12440000
opls_146-142    H    0.73017980    0.56683992    0.50000000    0.13320000
opls_146-143    H    0.66692998    0.69571990    0.50000000    0.04800000
opls_146-144    H    0.57028002    0.65610005    0.50000000    0.04850000
opls_146-145    H    0.18189984    0.60662998    0.50000000    0.08980000
opls_144-146    H    0.89637021    0.64306999    0.50000000    0.02870000
opls_525-147    H    0.11737024    0.74964002    0.50000000    0.08940000
opls_146-148    H    0.18321981    0.02821007    0.50000000    0.12440000
opls_146-149    H    0.23017980    0.93316008    0.50000000    0.13320000
opls_146-150    H    0.16692998    0.80428010    0.50000000    0.04800000
opls_146-151    H    0.07028002    0.84389995    0.50000000    0.04850000
opls_146-152    H    0.68189984    0.89337002    0.50000000    0.08980000
opls_144-153    H    0.39637021    0.85693001    0.50000000    0.02870000
opls_525-154    H    0.61737024    0.75035998    0.50000000    0.08940000
opls_146-155    H    0.68321981    0.52821007    0.50000000    0.12440000
opls_146-156    H    0.73017980    0.43316008    0.50000000    0.13330000
opls_146-157    H    0.66692998    0.30428010    0.50000000    0.04800000
opls_146-158    H    0.57028002    0.34389995    0.50000000    0.04850000
opls_146-159    H    0.18189984    0.39337002    0.50000000    0.08970000
opls_144-160    H    0.89637021    0.35693001    0.50000000    0.02870000
opls_525-161    H    0.11737024    0.25035998    0.50000000    0.08940000
opls_146-162    H    0.81678019    0.97178993    0.50000000    0.12440000
opls_146-163    H    0.76982020    0.06683992    0.50000000    0.13330000
opls_146-164    H    0.83307002    0.19571990    0.50000000    0.04800000
opls_146-165    H    0.92971998    0.15610005    0.50000000    0.04850000
opls_146-166    H    0.31810016    0.10662998    0.50000000    0.08970000
opls_144-167    H    0.60362979    0.14306999    0.50000000    0.02870000
opls_525-168    H    0.38262976    0.24964002    0.50000000    0.08940000
opls_146-169    H    0.31678019    0.47178993    0.50000000    0.12440000
opls_146-170    H    0.26982020    0.56683992    0.50000000    0.13320000
opls_146-171    H    0.33307002    0.69571990    0.50000000    0.04800000
opls_146-172    H    0.42971998    0.65610005    0.50000000    0.04860000
opls_146-173    H    0.81810016    0.60662998    0.50000000    0.08970000
opls_144-174    H    0.10362979    0.64306999    0.50000000    0.02870000
opls_525-175    H    0.88262976    0.74964002    0.50000000    0.08940000
opls_146-176    H    0.00000000    0.12351005    0.50000000    0.04870000
opls_526-177    H    0.00000000    0.21561011    0.50000000    0.04800000
opls_146-178    H    0.50000000    0.62351005    0.50000000    0.04860000
opls_526-179    H    0.50000000    0.71561011    0.50000000    0.04800000
opls_146-180    H    0.00000000    0.87648995    0.50000000    0.04860000
opls_526-181    H    0.00000000    0.78438989    0.50000000    0.04800000
opls_146-182    H    0.50000000    0.37648995    0.50000000    0.04860000
opls_526-183    H    0.50000000    0.28438989    0.50000000    0.04800000
