#======================================================================
# Crystal Data Generated By AuToFF
#----------------------------------------------------------------------

data_AuToFF_phase_1

_cell_length_a                         35.0731
_cell_length_b                         3.6041
_cell_length_c                         34.2450
_cell_angle_alpha                      90.00
_cell_angle_beta                       120.00
_cell_angle_gamma                      90.00
_symmetry_space_group_name_H-M_alt     'P 1'
_symmetry_space_group_IT_number        1

loop_
_space_group_symop_operation_xyz
   'x, y, z'

loop_
   _atom_site_label
   _atom_site_type_symbol
   _atom_site_fract_x
   _atom_site_fract_y
   _atom_site_fract_z
   _atom_site_charge
opls_700-0    C    0.46025008    0.50000000    0.52756007    0.10820000
opls_145-1    C    0.41517989    0.50000000    0.50053006    -0.21290000
opls_145-2    C    0.38797989    0.50000000    0.51949992    -0.21260000
opls_700-3    C    0.40549002    0.50000000    0.56564006    0.09020000
opls_145-4    C    0.45103002    0.50000000    0.59273009    -0.08820000
opls_145-5    C    0.47813999    0.50000000    0.57364997    -0.21260000
opls_142-6    C    0.37554016    0.50000000    0.58430005    -0.22570000
opls_142-7    C    0.38405008    0.50000000    0.62265014    -0.22540000
opls_700-8    C    0.35446999    0.50000000    0.64197000    -0.00140000
opls_700-9    C    0.37320013    0.50000000    0.68845003    -0.08120000
opls_521-10    C    0.34609997    0.50000000    0.70808988    0.16320000
opls_521-11    C    0.28217997    0.50000000    0.63571010    0.19140000
opls_700-12    C    0.30849009    0.50000000    0.61553007    -0.08210000
opls_142-13    C    0.36367989    0.50000000    0.75724988    -0.22480000
opls_142-14    C    0.23345000    0.50000000    0.60795009    -0.22050000
opls_142-15    C    0.40145000    0.50000000    0.78788004    -0.21260000
opls_145-16    C    0.42276004    0.50000000    0.83725011    0.09840000
opls_142-17    C    0.20700999    0.50000000    0.62425009    -0.18910000
opls_145-18    C    0.15857010    0.50000000    0.59498992    0.10190000
opls_145-19    C    0.46790011    0.50000000    0.86340006    -0.21320000
opls_145-20    C    0.48997002    0.50000000    0.91018996    -0.21300000
opls_145-21    C    0.46713012    0.50000000    0.93158016    0.07830000
opls_145-22    C    0.42202996    0.50000000    0.90595993    -0.21300000
opls_145-23    C    0.39982995    0.50000000    0.85898997    -0.21230000
opls_145-24    C    0.13172998    0.50000000    0.61337005    -0.21250000
opls_145-25    C    0.08595013    0.50000000    0.58617010    -0.21270000
opls_145-26    C    0.06658017    0.50000000    0.54042008    0.08140000
opls_145-27    C    0.09303999    0.50000000    0.52212999    -0.21320000
opls_145-28    C    0.13870998    0.50000000    0.54920012    -0.21320000
opls_261-29    C    0.51174989    0.50000000    0.49187006    -0.10610000
opls_261-30    C    0.49020009    0.50000000    0.97980007    -0.08450000
opls_261-31    C    0.01963995    0.50000000    0.51202008    -0.09990000
opls_423-32    C    0.71148988    0.50000000    0.43140988    0.27370000
opls_423-33    C    0.58091997    0.50000000    0.28534001    0.27370000
opls_700-34    C    0.53974992    0.50000000    0.47243993    0.10820000
opls_145-35    C    0.58482011    0.50000000    0.49946994    -0.21290000
opls_145-36    C    0.61202011    0.50000000    0.48050008    -0.21260000
opls_700-37    C    0.59450998    0.50000000    0.43435994    0.09020000
opls_145-38    C    0.54896998    0.50000000    0.40726991    -0.08820000
opls_145-39    C    0.52186001    0.50000000    0.42635003    -0.21260000
opls_142-40    C    0.62445984    0.50000000    0.41569995    -0.22570000
opls_142-41    C    0.61594992    0.50000000    0.37734986    -0.22540000
opls_700-42    C    0.64553001    0.50000000    0.35803000    -0.00140000
opls_700-43    C    0.62679987    0.50000000    0.31154997    -0.08120000
opls_521-44    C    0.65390003    0.50000000    0.29191012    0.16320000
opls_521-45    C    0.71782003    0.50000000    0.36428990    0.19140000
opls_700-46    C    0.69150991    0.50000000    0.38446993    -0.08210000
opls_142-47    C    0.63632011    0.50000000    0.24275012    -0.22480000
opls_142-48    C    0.76655000    0.50000000    0.39204991    -0.22050000
opls_142-49    C    0.59855000    0.50000000    0.21211996    -0.21260000
opls_145-50    C    0.57723996    0.50000000    0.16274989    0.09840000
opls_142-51    C    0.79299001    0.50000000    0.37574991    -0.18910000
opls_145-52    C    0.84142990    0.50000000    0.40501008    0.10190000
opls_145-53    C    0.53209989    0.50000000    0.13659994    -0.21320000
opls_145-54    C    0.51002998    0.50000000    0.08981004    -0.21300000
opls_145-55    C    0.53286988    0.50000000    0.06841984    0.07830000
opls_145-56    C    0.57797004    0.50000000    0.09404007    -0.21300000
opls_145-57    C    0.60017005    0.50000000    0.14101003    -0.21230000
opls_145-58    C    0.86827002    0.50000000    0.38662995    -0.21250000
opls_145-59    C    0.91404987    0.50000000    0.41382990    -0.21270000
opls_145-60    C    0.93341983    0.50000000    0.45957992    0.08140000
opls_145-61    C    0.90696001    0.50000000    0.47787001    -0.21320000
opls_145-62    C    0.86129002    0.50000000    0.45079988    -0.21320000
opls_261-63    C    0.48825011    0.50000000    0.50812994    -0.10610000
opls_261-64    C    0.50979991    0.50000000    0.02019993    -0.08450000
opls_261-65    C    0.98036005    0.50000000    0.48797992    -0.09990000
opls_423-66    C    0.28851012    0.50000000    0.56859012    0.27370000
opls_423-67    C    0.41908003    0.50000000    0.71465999    0.27370000
opls_520-68    N    0.30178980    0.50000000    0.68102987    -0.39470000
opls_262-69    N    0.72753011    0.50000000    0.46893014    -0.32970000
opls_262-70    N    0.54431997    0.50000000    0.26441985    -0.32770000
opls_520-71    N    0.69821020    0.50000000    0.31897013    -0.39480000
opls_262-72    N    0.27246989    0.50000000    0.53106986    -0.32970000
opls_262-73    N    0.45568003    0.50000000    0.73558015    -0.32770000
opls_146-74    H    0.40116997    0.50000000    0.46485995    0.21780000
opls_146-75    H    0.35312991    0.50000000    0.49814985    0.21320000
opls_146-76    H    0.46606007    0.50000000    0.62866995    0.07940000
opls_146-77    H    0.51311000    0.50000000    0.59483010    0.21820000
opls_144-78    H    0.34518992    0.50000000    0.56538009    0.21810000
opls_144-79    H    0.41440003    0.50000000    0.64213017    0.21810000
opls_144-80    H    0.34429999    0.50000000    0.76757997    0.21810000
opls_144-81    H    0.21879009    0.50000000    0.57262997    0.21770000
opls_144-82    H    0.41902005    0.50000000    0.77625009    0.21810000
opls_144-83    H    0.22115997    0.50000000    0.65997989    0.21320000
opls_146-84    H    0.48620016    0.50000000    0.84746016    0.21760000
opls_146-85    H    0.52480997    0.50000000    0.92974990    0.21830000
opls_146-86    H    0.40412007    0.50000000    0.92231996    0.21760000
opls_146-87    H    0.36493009    0.50000000    0.84014015    0.21860000
opls_146-88    H    0.14624985    0.50000000    0.64854989    0.21770000
opls_146-89    H    0.06568011    0.50000000    0.60061995    0.21760000
opls_146-90    H    0.07832994    0.50000000    0.48695015    0.21770000
opls_146-91    H    0.15826995    0.50000000    0.53433013    0.21750000
opls_146-92    H    0.59883003    0.50000000    0.53514005    0.21780000
opls_146-93    H    0.64687009    0.50000000    0.50185015    0.21320000
opls_146-94    H    0.53393993    0.50000000    0.37133005    0.07940000
opls_146-95    H    0.48689000    0.50000000    0.40516990    0.21820000
opls_144-96    H    0.65481008    0.50000000    0.43461991    0.21810000
opls_144-97    H    0.58559997    0.50000000    0.35786983    0.21810000
opls_144-98    H    0.65570001    0.50000000    0.23242003    0.21810000
opls_144-99    H    0.78120991    0.50000000    0.42737003    0.21760000
opls_144-100    H    0.58097995    0.50000000    0.22374991    0.21810000
opls_144-101    H    0.77884003    0.50000000    0.34002011    0.21320000
opls_146-102    H    0.51379984    0.50000000    0.15253984    0.21760000
opls_146-103    H    0.47519003    0.50000000    0.07025010    0.21830000
opls_146-104    H    0.59587993    0.50000000    0.07768004    0.21760000
opls_146-105    H    0.63506991    0.50000000    0.15985985    0.21860000
opls_146-106    H    0.85375015    0.50000000    0.35145011    0.21770000
opls_146-107    H    0.93431989    0.50000000    0.39938005    0.21760000
opls_146-108    H    0.92167006    0.50000000    0.51304985    0.21770000
opls_146-109    H    0.84173005    0.50000000    0.46566987    0.21750000
