#======================================================================
# Crystal Data Generated By AuToFF
#----------------------------------------------------------------------

data_AuToFF_phase_1

_cell_length_a                         13.2200
_cell_length_b                         13.2200
_cell_length_c                         12.1990
_cell_angle_alpha                      90.00
_cell_angle_beta                       90.00
_cell_angle_gamma                      90.00
_symmetry_space_group_name_H-M_alt     'P 1'
_symmetry_space_group_IT_number        1

loop_
_space_group_symop_operation_xyz
   'x, y, z'

loop_
   _atom_site_label
   _atom_site_type_symbol
   _atom_site_fract_x
   _atom_site_fract_y
   _atom_site_fract_z
   _atom_site_charge
opls_700-0    C    0.56427005    0.43601967    0.08270022    0.01540000
opls_700-1    C    0.53872012    0.46164977    0.19174031    0.03430000
opls_145-2    C    0.63804009    0.36272012    0.06729978    -0.23590000
opls_166-3    C    0.68609002    0.31609985    0.15804000    0.20920000
opls_700-4    C    0.65907035    0.34172995    0.26758013    0.04200000
opls_145-5    C    0.58387973    0.41642965    0.28131978    -0.16660000
opls_261-6    C    0.69981997    0.29891982    0.36388966    -0.10450000
opls_261-7    C    0.72977988    0.26733964    0.45297975    -0.03470000
opls_181-8    C    0.81913994    0.19813011    0.21174031    -0.18630000
opls_700-9    C    0.43572995    0.56398033    0.08270022    0.01540000
opls_700-10    C    0.46127988    0.53835023    0.19174031    0.03430000
opls_145-11    C    0.36195991    0.63727988    0.06729978    -0.23590000
opls_166-12    C    0.31390998    0.68390015    0.15804000    0.20920000
opls_700-13    C    0.34092965    0.65827005    0.26758013    0.04200000
opls_145-14    C    0.41612027    0.58357035    0.28131978    -0.16660000
opls_261-15    C    0.30018003    0.70108018    0.36388966    -0.10450000
opls_261-16    C    0.27022012    0.73266036    0.45297975    -0.03470000
opls_181-17    C    0.18086006    0.80186989    0.21174031    -0.18640000
opls_700-18    C    0.43601967    0.43572995    0.91729978    0.01540000
opls_700-19    C    0.46164977    0.46127988    0.80825969    0.03430000
opls_145-20    C    0.36272012    0.36195991    0.93270022    -0.23600000
opls_166-21    C    0.31609985    0.31390998    0.84196000    0.20920000
opls_700-22    C    0.34172995    0.34092965    0.73241987    0.04200000
opls_145-23    C    0.41642965    0.41612027    0.71868022    -0.16660000
opls_261-24    C    0.29891982    0.30018003    0.63611034    -0.10450000
opls_261-25    C    0.26733964    0.27022012    0.54702025    -0.03470000
opls_181-26    C    0.19813011    0.18086006    0.78825969    -0.18640000
opls_700-27    C    0.56398033    0.56427005    0.91729978    0.01540000
opls_700-28    C    0.53835023    0.53872012    0.80825969    0.03430000
opls_145-29    C    0.63727988    0.63804009    0.93270022    -0.23600000
opls_166-30    C    0.68390015    0.68609002    0.84196000    0.20920000
opls_700-31    C    0.65827005    0.65907035    0.73241987    0.04200000
opls_145-32    C    0.58357035    0.58387973    0.71868022    -0.16660000
opls_261-33    C    0.70108018    0.69981997    0.63611034    -0.10450000
opls_261-34    C    0.73266036    0.72977988    0.54702025    -0.03470000
opls_181-35    C    0.80186989    0.81913994    0.78825969    -0.18640000
opls_700-36    C    0.06427005    0.06398033    0.08270022    0.01540000
opls_700-37    C    0.03872012    0.03835023    0.19174031    0.03430000
opls_145-38    C    0.13804009    0.13727988    0.06729978    -0.23600000
opls_166-39    C    0.18609002    0.18390015    0.15804000    0.20920000
opls_700-40    C    0.15907035    0.15827005    0.26758013    0.04200000
opls_145-41    C    0.08387973    0.08357035    0.28131978    -0.16660000
opls_261-42    C    0.19981997    0.20108018    0.36388966    -0.10450000
opls_261-43    C    0.22977988    0.23266036    0.45297975    -0.03470000
opls_181-44    C    0.31913994    0.30186989    0.21174031    -0.18640000
opls_700-45    C    0.93572995    0.93601967    0.08270022    0.01540000
opls_700-46    C    0.96127988    0.96164977    0.19174031    0.03430000
opls_145-47    C    0.86195991    0.86272012    0.06729978    -0.23590000
opls_166-48    C    0.81390998    0.81609985    0.15804000    0.20920000
opls_700-49    C    0.84092965    0.84172995    0.26758013    0.04200000
opls_145-50    C    0.91612027    0.91642965    0.28131978    -0.16660000
opls_261-51    C    0.80018003    0.79891982    0.36388966    -0.10440000
opls_261-52    C    0.77022012    0.76733964    0.45297975    -0.03470000
opls_181-53    C    0.68086006    0.69813011    0.21174031    -0.18630000
opls_700-54    C    0.93601967    0.06427005    0.91729978    0.01540000
opls_700-55    C    0.96164977    0.03872012    0.80825969    0.03430000
opls_145-56    C    0.86272012    0.13804009    0.93270022    -0.23600000
opls_166-57    C    0.81609985    0.18609002    0.84196000    0.20920000
opls_700-58    C    0.84172995    0.15907035    0.73241987    0.04200000
opls_145-59    C    0.91642965    0.08387973    0.71868022    -0.16660000
opls_261-60    C    0.79891982    0.19981997    0.63611034    -0.10450000
opls_261-61    C    0.76733964    0.22977988    0.54702025    -0.03470000
opls_181-62    C    0.69813011    0.31913994    0.78825969    -0.18640000
opls_700-63    C    0.06398033    0.93572995    0.91729978    0.01540000
opls_700-64    C    0.03835023    0.96127988    0.80825969    0.03430000
opls_145-65    C    0.13727988    0.86195991    0.93270022    -0.23590000
opls_166-66    C    0.18390015    0.81390998    0.84196000    0.20940000
opls_700-67    C    0.15827005    0.84092965    0.73241987    0.04200000
opls_145-68    C    0.08357035    0.91612027    0.71868022    -0.16650000
opls_261-69    C    0.20108018    0.80018003    0.63611034    -0.10450000
opls_261-70    C    0.23266036    0.77022012    0.54702025    -0.03470000
opls_181-71    C    0.30186989    0.68086006    0.78825969    -0.18640000
opls_701-72    C    0.00000000    0.00000000    0.00000000    0.03260000
opls_701-73    C    0.50000000    0.50000000    0.00000000    0.03260000
opls_179-74    O    0.75764977    0.24682980    0.13029019    -0.13700000
opls_179-75    O    0.24235023    0.75317020    0.13029019    -0.13710000
opls_179-76    O    0.24682980    0.24235023    0.86970981    -0.13710000
opls_179-77    O    0.75317020    0.75764977    0.86970981    -0.13710000
opls_179-78    O    0.25764977    0.25317020    0.13029019    -0.13700000
opls_179-79    O    0.74235023    0.74682980    0.13029019    -0.13710000
opls_179-80    O    0.74682980    0.25764977    0.86970981    -0.13710000
opls_179-81    O    0.25317020    0.74235023    0.86970981    -0.13710000
opls_146-82    H    0.66301967    0.33723979    0.98735962    0.11540000
opls_146-83    H    0.56227005    0.43712027    0.36453972    0.10890000
opls_185-84    H    0.87448033    0.15337973    0.16598000    0.11660000
opls_185-85    H    0.77398033    0.14754992    0.26356013    0.10440000
opls_185-86    H    0.85931997    0.25360968    0.26246004    0.11080000
opls_146-87    H    0.33698033    0.66276021    0.98735962    0.11540000
opls_146-88    H    0.43772995    0.56287973    0.36453972    0.10890000
opls_185-89    H    0.12551967    0.84662027    0.16598000    0.11660000
opls_185-90    H    0.22601967    0.85245008    0.26356013    0.10440000
opls_185-91    H    0.14068003    0.74639032    0.26246004    0.11070000
opls_146-92    H    0.33723979    0.33698033    0.01264038    0.11540000
opls_146-93    H    0.43712027    0.43772995    0.63546028    0.10890000
opls_185-94    H    0.15337973    0.12551967    0.83402000    0.11670000
opls_185-95    H    0.14754992    0.22601967    0.73643987    0.10440000
opls_185-96    H    0.25360968    0.14068003    0.73753996    0.11080000
opls_146-97    H    0.66276021    0.66301967    0.01264038    0.11540000
opls_146-98    H    0.56287973    0.56227005    0.63546028    0.10890000
opls_185-99    H    0.84662027    0.87448033    0.83402000    0.11660000
opls_185-100    H    0.85245008    0.77398033    0.73643987    0.10440000
opls_185-101    H    0.74639032    0.85931997    0.73753996    0.11080000
opls_146-102    H    0.16301967    0.16276021    0.98735962    0.11540000
opls_146-103    H    0.06227005    0.06287973    0.36453972    0.10890000
opls_185-104    H    0.37448033    0.34662027    0.16598000    0.11660000
opls_185-105    H    0.27398033    0.35245008    0.26356013    0.10450000
opls_185-106    H    0.35931997    0.24639032    0.26246004    0.11070000
opls_146-107    H    0.83698033    0.83723979    0.98735962    0.11540000
opls_146-108    H    0.93772995    0.93712027    0.36453972    0.10900000
opls_185-109    H    0.62551967    0.65337973    0.16598000    0.11660000
opls_185-110    H    0.72601967    0.64754992    0.26356013    0.10440000
opls_185-111    H    0.64068003    0.75360968    0.26246004    0.11070000
opls_146-112    H    0.83723979    0.16301967    0.01264038    0.11550000
opls_146-113    H    0.93712027    0.06227005    0.63546028    0.10890000
opls_185-114    H    0.65337973    0.37448033    0.83402000    0.11660000
opls_185-115    H    0.64754992    0.27398033    0.73643987    0.10440000
opls_185-116    H    0.75360968    0.35931997    0.73753996    0.11070000
opls_146-117    H    0.16276021    0.83698033    0.01264038    0.11550000
opls_146-118    H    0.06287973    0.93772995    0.63546028    0.10890000
opls_185-119    H    0.34662027    0.62551967    0.83402000    0.11660000
opls_185-120    H    0.35245008    0.72601967    0.73643987    0.10440000
opls_185-121    H    0.24639032    0.64068003    0.73753996    0.11070000
