#======================================================================
# Crystal Data Generated By AuToFF
#----------------------------------------------------------------------

data_AuToFF_phase_1

_cell_length_a                         22.0730
_cell_length_b                         22.0730
_cell_length_c                         24.0000
_cell_angle_alpha                      90.00
_cell_angle_beta                       90.00
_cell_angle_gamma                      90.00
_symmetry_space_group_name_H-M_alt     'P 1'
_symmetry_space_group_IT_number        1

loop_
_space_group_symop_operation_xyz
   'x, y, z'

loop_
   _atom_site_label
   _atom_site_type_symbol
   _atom_site_fract_x
   _atom_site_fract_y
   _atom_site_fract_z
   _atom_site_charge
opls_145-0    C    0.36981018    0.14144022    0.00350000    0.23890000
opls_145-1    C    0.33488017    0.19455987    0.00323000    -0.14840000
opls_145-2    C    0.27144022    0.19470983    0.00311000    -0.08520000
opls_700-3    C    0.23640013    0.14161011    0.00331000    0.07730000
opls_145-4    C    0.27122004    0.08846011    0.00375000    -0.08290000
opls_145-5    C    0.33464006    0.08835999    0.00389000    -0.14890000
opls_716-6    C    0.88126988    0.30940017    0.99784000    -0.10880000
opls_716-7    C    0.83274000    0.26095003    0.00072000    -0.10890000
opls_543-8    C    0.86631994    0.20016989    0.00168000    0.20580000
opls_543-9    C    0.94206995    0.27579985    0.99720000    0.21120000
opls_700-10    C    0.00040004    0.31054999    0.99583000    -0.11580000
opls_700-11    C    0.83162008    0.14222987    0.00299000    -0.11580000
opls_716-12    C    0.11859013    0.97471979    0.00021000    -0.10880000
opls_716-13    C    0.16712001    0.02325012    0.00149000    -0.10890000
opls_543-14    C    0.13364019    0.08406016    0.00164000    0.20580000
opls_543-15    C    0.05783989    0.00832012    0.99992000    0.20300000
opls_700-16    C    0.16847008    0.14196983    0.00194000    -0.11580000
opls_700-17    C    0.99978979    0.97369003    0.00026000    -0.11580000
opls_716-18    C    0.83263988    0.02353010    0.00331000    -0.10890000
opls_716-19    C    0.88106012    0.97491007    0.00197000    -0.10880000
opls_543-20    C    0.94191999    0.00843021    0.00094000    0.20590000
opls_543-21    C    0.86628007    0.08429982    0.00280000    0.20560000
opls_716-22    C    0.16743986    0.26083994    0.99964000    -0.10880000
opls_716-23    C    0.11892991    0.30940017    0.99687000    -0.10880000
opls_543-24    C    0.05807004    0.27589000    0.99689000    0.20860000
opls_543-25    C    0.13387985    0.20002990    0.00091000    0.20440000
opls_700-26    C    0.76365016    0.14233000    0.00348000    0.07110000
opls_145-27    C    0.72872016    0.19546006    0.00321000    -0.08280000
opls_145-28    C    0.66528021    0.19561002    0.00310000    -0.12960000
opls_145-29    C    0.63024011    0.14249989    0.00329000    0.23890000
opls_145-30    C    0.66506003    0.08934988    0.00373000    -0.14850000
opls_145-31    C    0.72849001    0.08926018    0.00388000    -0.08520000
opls_908-32    C    0.46804014    0.08128981    0.97959000    -0.08430000
opls_908-33    C    0.52765007    0.08423005    0.01282000    -0.08430000
opls_915-34    C    0.52779006    0.19561999    0.01388000    0.12120000
opls_908-35    C    0.46798985    0.19975989    0.98103000    -0.12010000
opls_700-36    C    0.99992978    0.90587007    0.00424000    0.07130000
opls_145-37    C    0.94681013    0.87095003    0.00426000    -0.08780000
opls_145-38    C    0.05301001    0.87071988    0.00459000    -0.08730000
opls_145-39    C    0.00017986    0.51155982    0.00230000    0.23890000
opls_145-40    C    0.94697005    0.47646990    0.00231000    -0.14880000
opls_145-41    C    0.94703982    0.41302995    0.00241000    -0.08280000
opls_700-42    C    0.00026005    0.37818013    0.00255000    0.07370000
opls_145-43    C    0.05329996    0.41317990    0.00270000    -0.08290000
opls_145-44    C    0.05316994    0.47660989    0.00265000    -0.14850000
opls_908-45    C    0.05835002    0.60971005    0.97788000    -0.08430000
opls_908-46    C    0.05544013    0.66944004    0.01092000    -0.08430000
opls_915-47    C    0.94405020    0.66940017    0.01235000    0.11890000
opls_908-48    C    0.93989988    0.60945997    0.97970000    -0.12010000
opls_145-49    C    0.94625017    0.80682010    0.00114000    -0.10630000
opls_145-50    C    0.99930005    0.77167988    0.00128000    0.23740000
opls_145-51    C    0.05250985    0.80641009    0.00144000    -0.10530000
opls_135-52    C    0.56561002    0.25270013    0.00036000    -0.36930000
opls_135-53    C    0.88708014    0.70735016    0.01092000    -0.39690000
opls_145-54    C    0.36981018    0.14144022    0.50350000    0.23890000
opls_145-55    C    0.33488017    0.19455987    0.50323000    -0.14840000
opls_145-56    C    0.27144022    0.19470983    0.50311000    -0.08520000
opls_700-57    C    0.23640013    0.14161011    0.50331000    0.07720000
opls_145-58    C    0.27122004    0.08846011    0.50375000    -0.08290000
opls_145-59    C    0.33464006    0.08835999    0.50389000    -0.14890000
opls_716-60    C    0.88126988    0.30940017    0.49784000    -0.10880000
opls_716-61    C    0.83274000    0.26095003    0.50072000    -0.10890000
opls_543-62    C    0.86631994    0.20016989    0.50168000    0.20580000
opls_543-63    C    0.94206995    0.27579985    0.49720000    0.21120000
opls_700-64    C    0.00040004    0.31054999    0.49583000    -0.11580000
opls_700-65    C    0.83162008    0.14222987    0.50299000    -0.11580000
opls_716-66    C    0.11859013    0.97471979    0.50021000    -0.10890000
opls_716-67    C    0.16712001    0.02325012    0.50149000    -0.10880000
opls_543-68    C    0.13364019    0.08406016    0.50164000    0.20580000
opls_543-69    C    0.05783989    0.00832012    0.49992000    0.20290000
opls_700-70    C    0.16847008    0.14196983    0.50194000    -0.11580000
opls_700-71    C    0.99978979    0.97369003    0.50026000    -0.11580000
opls_716-72    C    0.83263988    0.02353010    0.50331000    -0.10890000
opls_716-73    C    0.88106012    0.97491007    0.50197000    -0.10880000
opls_543-74    C    0.94191999    0.00843021    0.50094000    0.20590000
opls_543-75    C    0.86628007    0.08429982    0.50280000    0.20570000
opls_716-76    C    0.16743986    0.26083994    0.49964000    -0.10880000
opls_716-77    C    0.11892991    0.30940017    0.49687000    -0.10880000
opls_543-78    C    0.05807004    0.27589000    0.49689000    0.20850000
opls_543-79    C    0.13387985    0.20002990    0.50091000    0.20450000
opls_700-80    C    0.76365016    0.14233000    0.50348000    0.07110000
opls_145-81    C    0.72872016    0.19546006    0.50321000    -0.08280000
opls_145-82    C    0.66528021    0.19561002    0.50310000    -0.12960000
opls_145-83    C    0.63024011    0.14249989    0.50329000    0.23890000
opls_145-84    C    0.66506003    0.08934988    0.50373000    -0.14850000
opls_145-85    C    0.72849001    0.08926018    0.50388000    -0.08520000
opls_908-86    C    0.46804014    0.08128981    0.47959000    -0.08430000
opls_908-87    C    0.52765007    0.08423005    0.51282000    -0.08430000
opls_915-88    C    0.52779006    0.19561999    0.51388000    0.12120000
opls_908-89    C    0.46798985    0.19975989    0.48103000    -0.12010000
opls_700-90    C    0.99992978    0.90587007    0.50424000    0.07130000
opls_145-91    C    0.94681013    0.87095003    0.50426000    -0.08780000
opls_145-92    C    0.05301001    0.87071988    0.50459000    -0.08730000
opls_145-93    C    0.00017986    0.51155982    0.50230000    0.23900000
opls_145-94    C    0.94697005    0.47646990    0.50231000    -0.14880000
opls_145-95    C    0.94703982    0.41302995    0.50241000    -0.08280000
opls_700-96    C    0.00026005    0.37818013    0.50255000    0.07380000
opls_145-97    C    0.05329996    0.41317990    0.50270000    -0.08280000
opls_145-98    C    0.05316994    0.47660989    0.50265000    -0.14850000
opls_908-99    C    0.05835002    0.60971005    0.47788000    -0.08430000
opls_908-100    C    0.05544013    0.66944004    0.51092000    -0.08430000
opls_915-101    C    0.94405020    0.66940017    0.51235000    0.11890000
opls_908-102    C    0.93989988    0.60945997    0.47970000    -0.12000000
opls_145-103    C    0.94625017    0.80682010    0.50114000    -0.10630000
opls_145-104    C    0.99930005    0.77167988    0.50128000    0.23740000
opls_145-105    C    0.05250985    0.80641009    0.50144000    -0.10530000
opls_135-106    C    0.56561002    0.25270013    0.50036000    -0.36920000
opls_135-107    C    0.88708014    0.70735016    0.51092000    -0.39690000
opls_542-108    N    0.93491007    0.20725003    0.99966000    -0.34750000
opls_542-109    N    0.06504009    0.07694015    0.00062000    -0.34730000
opls_542-110    N    0.93483985    0.07704979    0.00137000    -0.34750000
opls_542-111    N    0.06523989    0.20726000    0.99939000    -0.34750000
opls_901-112    N    0.43407013    0.14045984    0.98451000    -0.01350000
opls_901-113    N    0.56285009    0.14005980    0.99628000    -0.00530000
opls_901-114    N    0.99927015    0.57565986    0.98310000    -0.01350000
opls_901-115    N    0.99947991    0.70448013    0.99446000    -0.00530000
opls_542-116    N    0.93491007    0.20725003    0.49966000    -0.34750000
opls_542-117    N    0.06504009    0.07694015    0.50062000    -0.34750000
opls_542-118    N    0.93483985    0.07704979    0.50137000    -0.34740000
opls_542-119    N    0.06523989    0.20726000    0.49939000    -0.34750000
opls_901-120    N    0.43407013    0.14045984    0.48451000    -0.01350000
opls_901-121    N    0.56285009    0.14005980    0.49628000    -0.00530000
opls_901-122    N    0.99927015    0.57565986    0.48310000    -0.01350000
opls_901-123    N    0.99947991    0.70448013    0.49446000    -0.00530000
Cu2+-124    Cu    0.00003987    0.14211978    0.00025000    0.71920000
Cu2+-125    Cu    0.00003987    0.14211978    0.50025000    0.71950000
opls_146-126    H    0.35806007    0.24070992    0.00309000    0.04610000
opls_526-127    H    0.24572011    0.23949984    0.00285000    0.04600000
opls_526-128    H    0.24795995    0.04234993    0.00401000    0.04600000
opls_146-129    H    0.36039007    0.04358991    0.00436000    0.04600000
opls_547-130    H    0.86792008    0.35927015    0.99665000    0.04600000
opls_547-131    H    0.78287999    0.27437004    0.00170000    0.04600000
opls_547-132    H    0.13195986    0.92483985    0.99968000    0.04600000
opls_547-133    H    0.21699995    0.00987994    0.00211000    0.04600000
opls_547-134    H    0.78274000    0.01026005    0.00441000    0.04600000
opls_547-135    H    0.86758982    0.92505006    0.00190000    0.04600000
opls_547-136    H    0.21733022    0.27419019    0.00036000    0.04600000
opls_547-137    H    0.13235990    0.35923980    0.99529000    0.04600000
opls_526-138    H    0.75191003    0.24161011    0.00308000    0.04600000
opls_146-139    H    0.64179994    0.04324016    0.00399000    0.04600000
opls_526-140    H    0.75424999    0.04450007    0.00435000    0.04600000
opls_140-141    H    0.47861007    0.07207992    0.93388000    0.05050000
opls_140-142    H    0.43889005    0.04296018    0.99675000    0.05050000
opls_140-143    H    0.55589000    0.04216011    0.00361000    0.05050000
opls_140-144    H    0.51709011    0.08620985    0.05927000    0.05060000
opls_140-145    H    0.51792008    0.19361981    0.06047000    0.05140000
opls_140-146    H    0.43878992    0.23747021    0.99926000    0.05050000
opls_140-147    H    0.47851991    0.21044987    0.93558000    0.05050000
opls_146-148    H    0.90079011    0.49959000    0.00225000    0.04600000
opls_526-149    H    0.90233996    0.38715988    0.00238000    0.04600000
opls_526-150    H    0.09948987    0.39007022    0.00289000    0.04600000
opls_146-151    H    0.09783989    0.50252979    0.00289000    0.04600000
opls_140-152    H    0.06737009    0.62012006    0.93210000    0.05050000
opls_140-153    H    0.09680016    0.58069995    0.99502000    0.05050000
opls_140-154    H    0.09741992    0.69771984    0.00149000    0.05050000
opls_140-155    H    0.05366013    0.65904997    0.05742000    0.05050000
opls_140-156    H    0.95160014    0.65653015    0.05783000    0.05140000
opls_140-157    H    0.90231006    0.58027001    0.99814000    0.05050000
opls_140-158    H    0.92902007    0.61980021    0.93425000    0.05050000
opls_146-159    H    0.09756988    0.78160014    0.00572000    0.04600000
opls_140-160    H    0.56607983    0.26036017    0.95339000    0.09370000
opls_140-161    H    0.61397998    0.24611018    0.01587000    -0.12210000
opls_140-162    H    0.84706021    0.67899017    0.02578000    0.09370000
opls_140-163    H    0.87840982    0.72342002    0.96649000    0.09370000
opls_140-164    H    0.89279980    0.74826983    0.03942000    0.09370000
opls_144-165    H    0.63956010    0.24040004    0.00283000    -0.10480000
opls_146-166    H    0.90183980    0.78284012    0.01124000    0.04600000
opls_526-167    H    0.09835002    0.89501019    0.00030000    0.04610000
opls_140-168    H    0.54465999    0.29371993    0.02186000    0.09370000
opls_526-169    H    0.90070992    0.89406016    0.00689000    0.04600000
opls_146-170    H    0.35806007    0.24070992    0.50309000    0.04600000
opls_526-171    H    0.24572011    0.23949984    0.50285000    0.04600000
opls_526-172    H    0.24795995    0.04234993    0.50401000    0.04600000
opls_146-173    H    0.36039007    0.04358991    0.50436000    0.04600000
opls_547-174    H    0.86792008    0.35927015    0.49665000    0.04600000
opls_547-175    H    0.78287999    0.27437004    0.50170000    0.04600000
opls_547-176    H    0.13195986    0.92483985    0.49968000    0.04600000
opls_547-177    H    0.21699995    0.00987994    0.50211000    0.04600000
opls_547-178    H    0.78274000    0.01026005    0.50441000    0.04600000
opls_547-179    H    0.86758982    0.92505006    0.50190000    0.04600000
opls_547-180    H    0.21733022    0.27419019    0.50036000    0.04600000
opls_547-181    H    0.13235990    0.35923980    0.49529000    0.04600000
opls_526-182    H    0.75191003    0.24161011    0.50308000    0.04600000
opls_146-183    H    0.64179994    0.04324016    0.50399000    0.04600000
opls_526-184    H    0.75424999    0.04450007    0.50435000    0.04610000
opls_140-185    H    0.47861007    0.07207992    0.43388000    0.05050000
opls_140-186    H    0.43889005    0.04296018    0.49675000    0.05050000
opls_140-187    H    0.55589000    0.04216011    0.50361000    0.05050000
opls_140-188    H    0.51709011    0.08620985    0.55927000    0.05050000
opls_140-189    H    0.51792008    0.19361981    0.56047000    0.05140000
opls_140-190    H    0.43878992    0.23747021    0.49926000    0.05050000
opls_140-191    H    0.47851991    0.21044987    0.43558000    0.05050000
opls_146-192    H    0.90079011    0.49959000    0.50225000    0.04600000
opls_526-193    H    0.90233996    0.38715988    0.50238000    0.04610000
opls_526-194    H    0.09948987    0.39007022    0.50289000    0.04600000
opls_146-195    H    0.09783989    0.50252979    0.50289000    0.04600000
opls_140-196    H    0.06737009    0.62012006    0.43210000    0.05050000
opls_140-197    H    0.09680016    0.58069995    0.49502000    0.05050000
opls_140-198    H    0.09741992    0.69771984    0.50149000    0.05050000
opls_140-199    H    0.05366013    0.65904997    0.55742000    0.05050000
opls_140-200    H    0.95160014    0.65653015    0.55783000    0.05140000
opls_140-201    H    0.90231006    0.58027001    0.49814000    0.05050000
opls_140-202    H    0.92902007    0.61980021    0.43425000    0.05060000
opls_146-203    H    0.09756988    0.78160014    0.50572000    0.04600000
opls_140-204    H    0.56607983    0.26036017    0.45339000    0.09370000
opls_140-205    H    0.61397998    0.24611018    0.51587000    -0.12220000
opls_140-206    H    0.84706021    0.67899017    0.52578000    0.09370000
opls_140-207    H    0.87840982    0.72342002    0.46649000    0.09380000
opls_140-208    H    0.89279980    0.74826983    0.53942000    0.09370000
opls_144-209    H    0.63956010    0.24040004    0.50283000    -0.10480000
opls_146-210    H    0.90183980    0.78284012    0.51124000    0.04600000
opls_526-211    H    0.09835002    0.89501019    0.50030000    0.04600000
opls_140-212    H    0.54465999    0.29371993    0.52186000    0.09370000
opls_526-213    H    0.90070992    0.89406016    0.50689000    0.04600000
