#======================================================================
# Crystal Data Generated By AuToFF
#----------------------------------------------------------------------

data_AuToFF_phase_1

_cell_length_a                         16.8557
_cell_length_b                         16.8557
_cell_length_c                         3.4595
_cell_angle_alpha                      90.00
_cell_angle_beta                       90.00
_cell_angle_gamma                      120.00
_symmetry_space_group_name_H-M_alt     'P 1'
_symmetry_space_group_IT_number        1

loop_
_space_group_symop_operation_xyz
   'x, y, z'

loop_
   _atom_site_label
   _atom_site_type_symbol
   _atom_site_fract_x
   _atom_site_fract_y
   _atom_site_fract_z
   _atom_site_charge
opls_916-0    C    0.39473992    0.62072032    0.50000000    0.18670000
opls_145-1    C    0.36345036    0.52366028    0.50000000    -0.17790000
opls_145-2    C    0.41719026    0.48113028    0.50000000    -0.13670000
opls_700-3    C    0.51132002    0.53200009    0.50000000    0.12730000
opls_145-4    C    0.54899990    0.62533002    0.50000000    -0.13660000
opls_145-5    C    0.49393000    0.66636045    0.50000000    -0.20230000
opls_142-6    C    0.57277982    0.49233017    0.50000000    -0.18330000
opls_142-7    C    0.54442987    0.40235013    0.50000000    -0.22190000
opls_642-8    C    0.60866022    0.36717004    0.50000000    0.32790000
opls_916-9    C    0.37928041    0.77402027    0.50000000    0.18670000
opls_145-10    C    0.47633997    0.83978994    0.50000000    -0.17790000
opls_145-11    C    0.51886983    0.93606011    0.50000000    -0.13670000
opls_700-12    C    0.46800045    0.97932037    0.50000000    0.12730000
opls_145-13    C    0.37466997    0.92367028    0.50000000    -0.13660000
opls_145-14    C    0.33364001    0.82757000    0.50000000    -0.20230000
opls_142-15    C    0.50766999    0.08045030    0.50000000    -0.18330000
opls_142-16    C    0.59765009    0.14208020    0.50000000    -0.22190000
opls_642-17    C    0.63282991    0.24148996    0.50000000    0.32790000
opls_916-18    C    0.22598001    0.60526009    0.50000000    0.18670000
opls_145-19    C    0.16021001    0.63655047    0.50000000    -0.17790000
opls_145-20    C    0.06394026    0.58281030    0.50000000    -0.13670000
opls_700-21    C    0.02067987    0.48868022    0.50000000    0.12730000
opls_145-22    C    0.07633047    0.45100038    0.50000000    -0.13660000
opls_145-23    C    0.17243034    0.50607023    0.50000000    -0.20230000
opls_142-24    C    0.91954994    0.42722022    0.50000000    -0.18330000
opls_142-25    C    0.85792038    0.45557035    0.50000000    -0.22190000
opls_642-26    C    0.75850987    0.39134000    0.50000000    0.32800000
opls_641-27    N    0.57510029    0.27558014    0.50000000    -0.44700000
opls_641-28    N    0.72442016    0.29951992    0.50000000    -0.44700000
opls_641-29    N    0.70048014    0.42489995    0.50000000    -0.44700000
opls_239-30    N    0.33333030    0.66667009    0.50000000    -0.12390000
opls_146-31    H    0.30072991    0.46799991    0.50000000    0.23750000
opls_146-32    H    0.38344018    0.40708041    0.50000000    0.11360000
opls_146-33    H    0.62328998    0.66770041    0.50000000    0.10610000
opls_146-34    H    0.54406016    0.73265006    0.50000000    0.23890000
opls_144-35    H    0.64587013    0.54022001    0.50000000    0.11170000
opls_144-36    H    0.47276012    0.35143991    0.50000000    0.09700000
opls_146-37    H    0.53200031    0.83273049    0.50000000    0.23750000
opls_146-38    H    0.59292037    0.97636027    0.50000000    0.11400000
opls_146-39    H    0.33230011    0.95559022    0.50000000    0.10610000
opls_146-40    H    0.26735019    0.81141034    0.50000000    0.23890000
opls_144-41    H    0.45977986    0.10564989    0.50000000    0.11170000
opls_144-42    H    0.64856010    0.12131974    0.50000000    0.09700000
opls_146-43    H    0.16727013    0.69927028    0.50000000    0.23750000
opls_146-44    H    0.02363979    0.61656000    0.50000000    0.11400000
opls_146-45    H    0.04441025    0.37671006    0.50000000    0.10610000
opls_146-46    H    0.18858999    0.45594028    0.50000000    0.23890000
opls_144-47    H    0.89435001    0.35413010    0.50000000    0.11170000
opls_144-48    H    0.87868037    0.52724036    0.50000000    0.09700000
