#======================================================================
# Crystal Data Generated By AuToFF
#----------------------------------------------------------------------

data_AuToFF_phase_1

_cell_length_a                         19.8210
_cell_length_b                         19.8210
_cell_length_c                         3.4000
_cell_angle_alpha                      90.00
_cell_angle_beta                       90.00
_cell_angle_gamma                      120.00
_symmetry_space_group_name_H-M_alt     'P 1'
_symmetry_space_group_IT_number        1

loop_
_space_group_symop_operation_xyz
   'x, y, z'

loop_
   _atom_site_label
   _atom_site_type_symbol
   _atom_site_fract_x
   _atom_site_fract_y
   _atom_site_fract_z
   _atom_site_charge
opls_145-0    C    0.41491011    0.70864974    0.00000000    -0.13800000
opls_145-1    C    0.29135010    0.70626006    0.00000000    -0.13800000
opls_145-2    C    0.29374030    0.58509020    0.00000000    -0.13800000
opls_145-3    C    0.58508989    0.29135026    0.00000000    -0.13800000
opls_145-4    C    0.70864990    0.29373994    0.00000000    -0.13800000
opls_145-5    C    0.70625970    0.41490980    0.00000000    -0.13800000
opls_145-6    C    0.37428013    0.62811024    0.00000000    -0.02220000
opls_145-7    C    0.37188970    0.74616979    0.00000000    -0.02220000
opls_145-8    C    0.25383017    0.62571998    0.00000000    -0.02220000
opls_145-9    C    0.62571987    0.37188976    0.00000000    -0.02220000
opls_145-10    C    0.62811030    0.25383021    0.00000000    -0.02220000
opls_145-11    C    0.74616983    0.37428002    0.00000000    -0.02220000
opls_572-12    C    0.41405013    0.58928991    0.00000000    0.39170000
opls_572-13    C    0.41071016    0.82475012    0.00000000    0.39170000
opls_572-14    C    0.17524980    0.58595997    0.00000000    0.39170000
opls_572-15    C    0.58595996    0.41071009    0.00000000    0.39170000
opls_572-16    C    0.58928984    0.17524988    0.00000000    0.39170000
opls_572-17    C    0.82475011    0.41404993    0.00000000    0.39170000
opls_507-18    C    0.50335000    0.56884016    0.00000000    0.09450000
opls_507-19    C    0.43115989    0.93450988    0.00000000    0.09450000
opls_507-20    C    0.06549011    0.49664996    0.00000000    0.09450000
opls_507-21    C    0.49665000    0.43115984    0.00000000    0.09450000
opls_507-22    C    0.56884011    0.06549012    0.00000000    0.09450000
opls_507-23    C    0.93450989    0.50335004    0.00000000    0.09450000
opls_145-24    C    0.57531983    0.57435995    0.00000000    -0.29080000
opls_145-25    C    0.42564022    0.00096007    0.00000000    -0.29080000
opls_145-26    C    0.99903996    0.42467998    0.00000000    -0.29080000
opls_145-27    C    0.42468017    0.42564005    0.00000000    -0.29080000
opls_145-28    C    0.57435978    0.99903993    0.00000000    -0.29080000
opls_145-29    C    0.00096004    0.57532002    0.00000000    -0.29070000
opls_575-30    C    0.56786974    0.50168973    0.00000000    0.16010000
opls_575-31    C    0.49831016    0.06617988    0.00000000    0.16000000
opls_575-32    C    0.93381981    0.43212981    0.00000000    0.16000000
opls_575-33    C    0.43213026    0.49831027    0.00000000    0.16000000
opls_575-34    C    0.50168984    0.93382012    0.00000000    0.16000000
opls_575-35    C    0.06618019    0.56787019    0.00000000    0.16000000
opls_146-36    H    0.47483006    0.73949010    0.00000000    0.22320000
opls_146-37    H    0.26050988    0.73533992    0.00000000    0.22320000
opls_146-38    H    0.26466006    0.52516998    0.00000000    0.22340000
opls_146-39    H    0.52516994    0.26050990    0.00000000    0.22320000
opls_146-40    H    0.73949012    0.26466008    0.00000000    0.22320000
opls_146-41    H    0.73533994    0.47483002    0.00000000    0.22330000
opls_146-42    H    0.62736975    0.62517994    0.00000000    0.22340000
opls_146-43    H    0.37482986    0.00218986    0.00000000    0.22330000
opls_146-44    H    0.99780998    0.37263020    0.00000000    0.22350000
opls_146-45    H    0.37263016    0.37482996    0.00000000    0.22330000
opls_146-46    H    0.62518023    0.99781014    0.00000000    0.22340000
opls_146-47    H    0.00219002    0.62736980    0.00000000    0.22340000
opls_573-48    N    0.49171009    0.62733018    0.00000000    -0.38060000
opls_573-49    N    0.37266990    0.86438022    0.00000000    -0.38070000
opls_573-50    N    0.13562039    0.50828028    0.00000000    -0.38070000
opls_573-51    N    0.50827981    0.37266982    0.00000000    -0.38070000
opls_573-52    N    0.62733010    0.13561978    0.00000000    -0.38070000
opls_573-53    N    0.86437961    0.49171972    0.00000000    -0.38070000
opls_180-54    O    0.62586966    0.48887972    0.00000000    -0.26110000
opls_180-55    O    0.51111998    0.13698997    0.00000000    -0.26120000
opls_180-56    O    0.86301007    0.37412972    0.00000000    -0.26120000
opls_180-57    O    0.37413034    0.51112028    0.00000000    -0.26120000
opls_180-58    O    0.48888002    0.86301003    0.00000000    -0.26120000
opls_180-59    O    0.13698964    0.62586970    0.00000000    -0.26120000
