#======================================================================
# Crystal Data Generated By AuToFF
#----------------------------------------------------------------------

data_AuToFF_phase_1

_cell_length_a                         23.2000
_cell_length_b                         23.2000
_cell_length_c                         8.9000
_cell_angle_alpha                      90.00
_cell_angle_beta                       90.00
_cell_angle_gamma                      90.00
_symmetry_space_group_name_H-M_alt     'P 1'
_symmetry_space_group_IT_number        1

loop_
_space_group_symop_operation_xyz
   'x, y, z'

loop_
   _atom_site_label
   _atom_site_type_symbol
   _atom_site_fract_x
   _atom_site_fract_y
   _atom_site_fract_z
   _atom_site_charge
opls_146-0    H    0.91205000    0.91205000    0.48643034    0.17560000
opls_146-1    H    0.73736983    0.73736983    0.98836966    0.17560000
opls_146-2    H    0.81838017    0.81838017    0.34170000    0.17570000
opls_144-3    H    0.80906983    0.80906983    0.90788989    0.08600000
opls_146-4    H    0.95080000    0.95080000    0.99910000    0.17510000
opls_146-5    H    0.86139009    0.86139009    0.68028989    0.17560000
opls_146-6    H    0.08795000    0.08795000    0.48643034    0.17560000
opls_146-7    H    0.26263017    0.26263017    0.98836966    0.17560000
opls_146-8    H    0.18161983    0.18161983    0.34170000    0.17570000
opls_144-9    H    0.19093017    0.19093017    0.90788989    0.08600000
opls_146-10    H    0.04920000    0.04920000    0.99910000    0.17520000
opls_146-11    H    0.13860991    0.13860991    0.68028989    0.17560000
opls_146-12    H    0.58795000    0.41205991    0.98643034    0.17560000
opls_146-13    H    0.76263017    0.23736983    0.48836966    0.17560000
opls_146-14    H    0.68161983    0.31838017    0.84170000    0.17560000
opls_144-15    H    0.69093017    0.30906983    0.40788989    0.08600000
opls_146-16    H    0.54920000    0.45080000    0.49910000    0.17510000
opls_146-17    H    0.63860991    0.36139009    0.18028989    0.17560000
opls_146-18    H    0.41205991    0.58795000    0.98643034    0.17560000
opls_146-19    H    0.23736983    0.76263017    0.48836966    0.17560000
opls_146-20    H    0.31838017    0.68161983    0.84170000    0.17560000
opls_144-21    H    0.30906983    0.69093017    0.40788989    0.08600000
opls_146-22    H    0.45080000    0.54920000    0.49910000    0.17510000
opls_146-23    H    0.36139009    0.63860991    0.18028989    0.17560000
opls_146-24    H    0.08795000    0.91205000    0.51357978    0.17560000
opls_146-25    H    0.26263017    0.73736983    0.01163034    0.17560000
opls_146-26    H    0.18161983    0.81838017    0.65830000    0.17560000
opls_144-27    H    0.19093017    0.80906983    0.09211011    0.08600000
opls_146-28    H    0.04920000    0.95080000    0.00090000    0.17510000
opls_146-29    H    0.13860991    0.86139009    0.31971011    0.17560000
opls_146-30    H    0.91205000    0.08795000    0.51357978    0.17560000
opls_146-31    H    0.73736983    0.26263017    0.01163034    0.17560000
opls_146-32    H    0.81838017    0.18161983    0.65830000    0.17560000
opls_144-33    H    0.80906983    0.19093017    0.09211011    0.08600000
opls_146-34    H    0.95080000    0.04920000    0.00090000    0.17510000
opls_146-35    H    0.86139009    0.13860991    0.31971011    0.17560000
opls_146-36    H    0.41205991    0.41205991    0.01357978    0.17560000
opls_146-37    H    0.23736983    0.23736983    0.51163034    0.17560000
opls_146-38    H    0.31838017    0.31838017    0.15830000    0.17560000
opls_144-39    H    0.30906983    0.30906983    0.59211011    0.08600000
opls_146-40    H    0.45080000    0.45080000    0.50090000    0.17510000
opls_146-41    H    0.36139009    0.36139009    0.81971011    0.17560000
opls_146-42    H    0.58795000    0.58795000    0.01357978    0.17560000
opls_146-43    H    0.76263017    0.76263017    0.51163034    0.17560000
opls_146-44    H    0.68161983    0.68161983    0.15830000    0.17560000
opls_144-45    H    0.69093017    0.69093017    0.59211011    0.08600000
opls_146-46    H    0.54920000    0.54920000    0.50090000    0.17520000
opls_146-47    H    0.63860991    0.63860991    0.81971011    0.17560000
opls_145-48    C    0.74503017    0.74503017    0.09971011    -0.12500000
opls_700-49    C    0.78874009    0.78874009    0.13234045    0.04920000
opls_145-50    C    0.78990000    0.78990000    0.29507978    -0.12770000
opls_142-51    C    0.82230000    0.82230000    0.01170000    0.02260000
opls_145-52    C    0.89855000    0.89855000    0.87173034    0.13770000
opls_145-53    C    0.94338017    0.94338017    0.88988989    -0.20030000
opls_700-54    C    0.97725991    0.97725991    0.77553034    0.01370000
opls_700-55    C    0.96496983    0.96496983    0.62071011    0.00910000
opls_145-56    C    0.92180000    0.92180000    0.59562022    -0.16970000
opls_145-57    C    0.89120000    0.89120000    0.71318989    -0.24100000
opls_145-58    C    0.25496983    0.25496983    0.09971011    -0.12500000
opls_700-59    C    0.21125991    0.21125991    0.13234045    0.04920000
opls_145-60    C    0.21010000    0.21010000    0.29507978    -0.12770000
opls_142-61    C    0.17770000    0.17770000    0.01170000    0.02260000
opls_145-62    C    0.10145000    0.10145000    0.87173034    0.13760000
opls_145-63    C    0.05661983    0.05661983    0.88988989    -0.20030000
opls_700-64    C    0.02274009    0.02274009    0.77553034    0.01370000
opls_700-65    C    0.03503017    0.03503017    0.62071011    0.00910000
opls_145-66    C    0.07820991    0.07820991    0.59562022    -0.16980000
opls_145-67    C    0.10880000    0.10880000    0.71318989    -0.24100000
opls_145-68    C    0.75496983    0.24503017    0.59971011    -0.12500000
opls_700-69    C    0.71125991    0.28874009    0.63234045    0.04920000
opls_145-70    C    0.71010000    0.28990000    0.79507978    -0.12760000
opls_142-71    C    0.67770000    0.32230000    0.51170000    0.02260000
opls_145-72    C    0.60145000    0.39855000    0.37173034    0.13760000
opls_145-73    C    0.55661983    0.44338017    0.38988989    -0.20010000
opls_700-74    C    0.52274009    0.47725991    0.27553034    0.01370000
opls_700-75    C    0.53503017    0.46496983    0.12071011    0.00910000
opls_145-76    C    0.57820991    0.42179009    0.09562022    -0.16990000
opls_145-77    C    0.60880000    0.39120000    0.21318989    -0.24090000
opls_145-78    C    0.24503017    0.75496983    0.59971011    -0.12500000
opls_700-79    C    0.28874009    0.71125991    0.63234045    0.04920000
opls_145-80    C    0.28990000    0.71010000    0.79507978    -0.12770000
opls_142-81    C    0.32230000    0.67770000    0.51170000    0.02260000
opls_145-82    C    0.39855000    0.60145000    0.37173034    0.13760000
opls_145-83    C    0.44338017    0.55661983    0.38988989    -0.20020000
opls_700-84    C    0.47725991    0.52274009    0.27553034    0.01370000
opls_700-85    C    0.46496983    0.53503017    0.12071011    0.00910000
opls_145-86    C    0.42179009    0.57820991    0.09562022    -0.16990000
opls_145-87    C    0.39120000    0.60880000    0.21318989    -0.24100000
opls_145-88    C    0.25496983    0.74503017    0.90028989    -0.12500000
opls_700-89    C    0.21125991    0.78874009    0.86765955    0.04920000
opls_145-90    C    0.21010000    0.78990000    0.70492022    -0.12770000
opls_142-91    C    0.17770000    0.82230000    0.98830000    0.02270000
opls_145-92    C    0.10145000    0.89855000    0.12826966    0.13760000
opls_145-93    C    0.05661983    0.94338017    0.11011011    -0.20030000
opls_700-94    C    0.02274009    0.97725991    0.22447978    0.01370000
opls_700-95    C    0.03503017    0.96496983    0.37928989    0.00910000
opls_145-96    C    0.07820991    0.92180000    0.40437978    -0.16980000
opls_145-97    C    0.10880000    0.89120000    0.28681011    -0.24100000
opls_145-98    C    0.74503017    0.25496983    0.90028989    -0.12500000
opls_700-99    C    0.78874009    0.21125991    0.86765955    0.04920000
opls_145-100    C    0.78990000    0.21010000    0.70492022    -0.12770000
opls_142-101    C    0.82230000    0.17770000    0.98830000    0.02260000
opls_145-102    C    0.89855000    0.10145000    0.12826966    0.13760000
opls_145-103    C    0.94338017    0.05661983    0.11011011    -0.20020000
opls_700-104    C    0.97725991    0.02274009    0.22447978    0.01370000
opls_700-105    C    0.96496983    0.03503017    0.37928989    0.00910000
opls_145-106    C    0.92180000    0.07820991    0.40437978    -0.16980000
opls_145-107    C    0.89120000    0.10880000    0.28681011    -0.24100000
opls_145-108    C    0.24503017    0.24503017    0.40028989    -0.12500000
opls_700-109    C    0.28874009    0.28874009    0.36765955    0.04920000
opls_145-110    C    0.28990000    0.28990000    0.20492022    -0.12770000
opls_142-111    C    0.32230000    0.32230000    0.48830000    0.02260000
opls_145-112    C    0.39855000    0.39855000    0.62826966    0.13760000
opls_145-113    C    0.44338017    0.44338017    0.61011011    -0.20030000
opls_700-114    C    0.47725991    0.47725991    0.72447978    0.01380000
opls_700-115    C    0.46496983    0.46496983    0.87928989    0.00910000
opls_145-116    C    0.42179009    0.42179009    0.90437978    -0.16980000
opls_145-117    C    0.39120000    0.39120000    0.78681011    -0.24090000
opls_145-118    C    0.75496983    0.75496983    0.40028989    -0.12500000
opls_700-119    C    0.71125991    0.71125991    0.36765955    0.04920000
opls_145-120    C    0.71010000    0.71010000    0.20492022    -0.12770000
opls_142-121    C    0.67770000    0.67770000    0.48830000    0.02260000
opls_145-122    C    0.60145000    0.60145000    0.62826966    0.13760000
opls_145-123    C    0.55661983    0.55661983    0.61011011    -0.20020000
opls_700-124    C    0.52274009    0.52274009    0.72447978    0.01370000
opls_700-125    C    0.53503017    0.53503017    0.87928989    0.00910000
opls_145-126    C    0.57820991    0.57820991    0.90437978    -0.16980000
opls_145-127    C    0.60880000    0.60880000    0.78681011    -0.24100000
opls_701-128    C    0.00000000    0.00000000    0.50000000    0.02030000
opls_701-129    C    0.50000000    0.50000000    0.00000000    0.02030000
opls_750-130    N    0.86675000    0.86675000    0.99015955    -0.33710000
opls_750-131    N    0.13325000    0.13325000    0.99015955    -0.33710000
opls_750-132    N    0.63325000    0.36675000    0.49015955    -0.33720000
opls_750-133    N    0.36675000    0.63325000    0.49015955    -0.33710000
opls_750-134    N    0.13325000    0.86675000    0.00984045    -0.33720000
opls_750-135    N    0.86675000    0.13325000    0.00984045    -0.33710000
opls_750-136    N    0.36675000    0.36675000    0.50984045    -0.33720000
opls_750-137    N    0.63325000    0.63325000    0.50984045    -0.33720000
