#======================================================================
# Crystal Data Generated By AuToFF
#----------------------------------------------------------------------

data_AuToFF_phase_1

_cell_length_a                         27.6564
_cell_length_b                         30.2343
_cell_length_c                         4.4372
_cell_angle_alpha                      90.00
_cell_angle_beta                       90.00
_cell_angle_gamma                      90.00
_symmetry_space_group_name_H-M_alt     'P 1'
_symmetry_space_group_IT_number        1

loop_
_space_group_symop_operation_xyz
   'x, y, z'

loop_
   _atom_site_label
   _atom_site_type_symbol
   _atom_site_fract_x
   _atom_site_fract_y
   _atom_site_fract_z
   _atom_site_charge
opls_145-0    C    0.44672011    0.54169007    0.50256919    0.04920000
opls_145-1    C    0.45176017    0.57310009    0.31077932    -0.12390000
opls_145-2    C    0.42407002    0.61170988    0.31122104    -0.12390000
opls_145-3    C    0.39037004    0.61970014    0.50482962    0.04790000
opls_145-4    C    0.38522982    0.58793986    0.69711981    -0.12390000
opls_145-5    C    0.41284007    0.54925002    0.69437032    -0.12390000
opls_700-6    C    0.36011014    0.66046014    0.50317993    0.10850000
opls_145-7    C    0.37862014    0.70060990    0.40967051    -0.08390000
opls_145-8    C    0.34966988    0.73845996    0.40075949    -0.11360000
opls_700-9    C    0.30185997    0.73722990    0.48835076    0.08510000
opls_145-10    C    0.28339986    0.69743999    0.58538042    -0.10280000
opls_145-11    C    0.31209991    0.65942985    0.59130082    -0.06110000
opls_142-12    C    0.27155993    0.77730988    0.47143920    0.09980000
opls_700-13    C    0.08767989    0.91728004    0.52307086    -0.08640000
opls_507-14    C    0.10313996    0.96441988    0.51198053    0.25850000
opls_716-15    C    0.15103990    0.97759002    0.51047958    -0.11020000
opls_716-16    C    0.02455996    0.85982014    0.50436987    -0.10930000
opls_507-17    C    0.03895012    0.90368985    0.51038943    0.25400000
opls_145-18    C    0.12600013    0.88272988    0.54121969    0.04890000
opls_145-19    C    0.16054006    0.87806994    0.34890021    -0.12390000
opls_145-20    C    0.19567008    0.84494002    0.36239070    -0.12870000
opls_145-21    C    0.19608987    0.81515001    0.56644055    0.28470000
opls_145-22    C    0.16112003    0.81934988    0.75580096    -0.12880000
opls_145-23    C    0.12698001    0.85335993    0.74643018    -0.12420000
opls_145-24    C    0.55327989    0.45830993    0.50256919    0.04920000
opls_145-25    C    0.54823983    0.42689991    0.31077932    -0.12390000
opls_145-26    C    0.57592998    0.38829012    0.31122104    -0.12390000
opls_145-27    C    0.60962996    0.38029986    0.50482962    0.04790000
opls_145-28    C    0.61477018    0.41206014    0.69711981    -0.12390000
opls_145-29    C    0.58715993    0.45074998    0.69437032    -0.12390000
opls_700-30    C    0.63988986    0.33953986    0.50317993    0.10850000
opls_145-31    C    0.62137986    0.29939010    0.40967051    -0.08390000
opls_145-32    C    0.65033012    0.26154004    0.40075949    -0.11360000
opls_700-33    C    0.69814003    0.26277010    0.48835076    0.08510000
opls_145-34    C    0.71660014    0.30256001    0.58538042    -0.10280000
opls_145-35    C    0.68790009    0.34057015    0.59130082    -0.06110000
opls_142-36    C    0.72844007    0.22269012    0.47143920    0.09980000
opls_700-37    C    0.91232011    0.08271996    0.52307086    -0.08640000
opls_507-38    C    0.89686004    0.03558012    0.51198053    0.25850000
opls_716-39    C    0.84896010    0.02240998    0.51047958    -0.11020000
opls_716-40    C    0.97544004    0.14017986    0.50436987    -0.10930000
opls_507-41    C    0.96104988    0.09631015    0.51038943    0.25400000
opls_145-42    C    0.87399987    0.11727012    0.54121969    0.04890000
opls_145-43    C    0.83945994    0.12193006    0.34890021    -0.12390000
opls_145-44    C    0.80432992    0.15505998    0.36239070    -0.12870000
opls_145-45    C    0.80391013    0.18484999    0.56644055    0.28470000
opls_145-46    C    0.83887997    0.18065012    0.75580096    -0.12880000
opls_145-47    C    0.87301999    0.14664007    0.74643018    -0.12420000
opls_145-48    C    0.55327989    0.54169007    0.49743081    0.04920000
opls_145-49    C    0.54823983    0.57310009    0.68922068    -0.12390000
opls_145-50    C    0.57592998    0.61170988    0.68877896    -0.12390000
opls_145-51    C    0.60962996    0.61970014    0.49517038    0.04790000
opls_145-52    C    0.61477018    0.58793986    0.30288019    -0.12390000
opls_145-53    C    0.58715993    0.54925002    0.30562968    -0.12380000
opls_700-54    C    0.63988986    0.66046014    0.49682007    0.10850000
opls_145-55    C    0.62137986    0.70060990    0.59032949    -0.08390000
opls_145-56    C    0.65033012    0.73845996    0.59924051    -0.11360000
opls_700-57    C    0.69814003    0.73722990    0.51164924    0.08510000
opls_145-58    C    0.71660014    0.69743999    0.41461958    -0.10280000
opls_145-59    C    0.68790009    0.65942985    0.40869918    -0.06110000
opls_142-60    C    0.72844007    0.77730988    0.52856080    0.09990000
opls_700-61    C    0.91232011    0.91728004    0.47692914    -0.08640000
opls_507-62    C    0.89686004    0.96441988    0.48801947    0.25860000
opls_716-63    C    0.84896010    0.97759002    0.48952042    -0.11020000
opls_716-64    C    0.97544004    0.85982014    0.49563013    -0.10930000
opls_507-65    C    0.96104988    0.90368985    0.48961057    0.25400000
opls_145-66    C    0.87399987    0.88272988    0.45878031    0.04890000
opls_145-67    C    0.83945994    0.87806994    0.65109979    -0.12390000
opls_145-68    C    0.80432992    0.84494002    0.63760930    -0.12870000
opls_145-69    C    0.80391013    0.81515001    0.43355945    0.28470000
opls_145-70    C    0.83887997    0.81934988    0.24419904    -0.12880000
opls_145-71    C    0.87301999    0.85335993    0.25356982    -0.12420000
opls_145-72    C    0.44672011    0.45830993    0.49743081    0.04920000
opls_145-73    C    0.45176017    0.42689991    0.68922068    -0.12390000
opls_145-74    C    0.42407002    0.38829012    0.68877896    -0.12380000
opls_145-75    C    0.39037004    0.38029986    0.49517038    0.04790000
opls_145-76    C    0.38522982    0.41206014    0.30288019    -0.12380000
opls_145-77    C    0.41284007    0.45074998    0.30562968    -0.12390000
opls_700-78    C    0.36011014    0.33953986    0.49682007    0.10850000
opls_145-79    C    0.37862014    0.29939010    0.59032949    -0.08390000
opls_145-80    C    0.34966988    0.26154004    0.59924051    -0.11360000
opls_700-81    C    0.30185997    0.26277010    0.51164924    0.08510000
opls_145-82    C    0.28339986    0.30256001    0.41461958    -0.10280000
opls_145-83    C    0.31209991    0.34057015    0.40869918    -0.06110000
opls_142-84    C    0.27155993    0.22269012    0.52856080    0.09990000
opls_700-85    C    0.08767989    0.08271996    0.47692914    -0.08640000
opls_507-86    C    0.10313996    0.03558012    0.48801947    0.25850000
opls_716-87    C    0.15103990    0.02240998    0.48952042    -0.11020000
opls_716-88    C    0.02455996    0.14017986    0.49563013    -0.10930000
opls_507-89    C    0.03895012    0.09631015    0.48961057    0.25410000
opls_145-90    C    0.12600013    0.11727012    0.45878031    0.04890000
opls_145-91    C    0.16054006    0.12193006    0.65109979    -0.12390000
opls_145-92    C    0.19567008    0.15505998    0.63760930    -0.12870000
opls_145-93    C    0.19608987    0.18484999    0.43355945    0.28470000
opls_145-94    C    0.16112003    0.18065012    0.24419904    -0.12880000
opls_145-95    C    0.12698001    0.14664007    0.25356982    -0.12420000
opls_141-96    C    0.47527986    0.50000000    0.50000000    -0.01960000
opls_141-97    C    0.52472014    0.50000000    0.50000000    -0.01960000
opls_750-98    N    0.22943008    0.77882008    0.57968088    -0.19370000
opls_750-99    N    0.77056992    0.22117992    0.57968088    -0.19380000
opls_750-100    N    0.77056992    0.77882008    0.42031912    -0.19380000
opls_750-101    N    0.22943008    0.22117992    0.42031912    -0.19380000
opls_542-102    N    0.07335011    0.00000000    0.50000000    -0.19130000
opls_542-103    N    0.92664989    0.00000000    0.50000000    -0.19130000
opls_542-104    N    0.00000000    0.93094003    0.50000000    -0.19280000
opls_542-105    N    0.00000000    0.06905997    0.50000000    -0.19280000
opls_146-106    H    0.48022013    0.57042002    0.12580907    0.05670000
opls_146-107    H    0.43071007    0.63828996    0.13371946    0.05670000
opls_146-108    H    0.35685013    0.59060008    0.88259037    0.05670000
opls_146-109    H    0.40583988    0.52228992    0.86861084    0.05670000
opls_146-110    H    0.41811009    0.70324003    0.33817047    0.05670000
opls_146-111    H    0.36549009    0.77119001    0.31989092    0.05670000
opls_146-112    H    0.24416012    0.69516013    0.66244929    0.05670000
opls_146-113    H    0.29608011    0.62666012    0.66989092    0.05670000
opls_144-114    H    0.28604988    0.80839014    0.35741909    0.03350000
opls_547-115    H    0.18103983    0.95181995    0.52545073    0.05670000
opls_547-116    H    0.05281996    0.83236986    0.50722978    0.05670000
opls_146-117    H    0.16386008    0.90196003    0.15119895    0.05670000
opls_146-118    H    0.22565012    0.84370996    0.18629090    0.05670000
opls_146-119    H    0.15662017    0.79435013    0.94606058    0.05670000
opls_146-120    H    0.09808001    0.85577010    0.92888083    0.05670000
opls_146-121    H    0.51977987    0.42957998    0.12580907    0.05670000
opls_146-122    H    0.56928993    0.36171004    0.13371946    0.05670000
opls_146-123    H    0.64314987    0.40939992    0.88259037    0.05670000
opls_146-124    H    0.59416012    0.47771008    0.86861084    0.05670000
opls_146-125    H    0.58188991    0.29675997    0.33817047    0.05670000
opls_146-126    H    0.63450991    0.22880999    0.31989092    0.05670000
opls_146-127    H    0.75583988    0.30483987    0.66244929    0.05670000
opls_146-128    H    0.70391989    0.37333988    0.66989092    0.05670000
opls_144-129    H    0.71395012    0.19160986    0.35741909    0.03350000
opls_547-130    H    0.81896017    0.04818005    0.52545073    0.05670000
opls_547-131    H    0.94718004    0.16763014    0.50722978    0.05670000
opls_146-132    H    0.83613992    0.09803997    0.15119895    0.05670000
opls_146-133    H    0.77434988    0.15629004    0.18629090    0.05680000
opls_146-134    H    0.84337983    0.20564987    0.94606058    0.05670000
opls_146-135    H    0.90191999    0.14422990    0.92888083    0.05670000
opls_146-136    H    0.51977987    0.57042002    0.87419093    0.05670000
opls_146-137    H    0.56928993    0.63828996    0.86628054    0.05670000
opls_146-138    H    0.64314987    0.59060008    0.11740963    0.05670000
opls_146-139    H    0.59416012    0.52228992    0.13138916    0.05670000
opls_146-140    H    0.58188991    0.70324003    0.66182953    0.05670000
opls_146-141    H    0.63450991    0.77119001    0.68010908    0.05670000
opls_146-142    H    0.75583988    0.69516013    0.33755071    0.05670000
opls_146-143    H    0.70391989    0.62666012    0.33010908    0.05670000
opls_144-144    H    0.71395012    0.80839014    0.64258091    0.03350000
opls_547-145    H    0.81896017    0.95181995    0.47454927    0.05670000
opls_547-146    H    0.94718004    0.83236986    0.49277022    0.05670000
opls_146-147    H    0.83613992    0.90196003    0.84880105    0.05670000
opls_146-148    H    0.77434988    0.84370996    0.81370910    0.05670000
opls_146-149    H    0.84337983    0.79435013    0.05393942    0.05670000
opls_146-150    H    0.90191999    0.85577010    0.07111917    0.05670000
opls_146-151    H    0.48022013    0.42957998    0.87419093    0.05670000
opls_146-152    H    0.43071007    0.36171004    0.86628054    0.05670000
opls_146-153    H    0.35685013    0.40939992    0.11740963    0.05670000
opls_146-154    H    0.40583988    0.47771008    0.13138916    0.05670000
opls_146-155    H    0.41811009    0.29675997    0.66182953    0.05680000
opls_146-156    H    0.36549009    0.22880999    0.68010908    0.05670000
opls_146-157    H    0.24416012    0.30483987    0.33755071    0.05670000
opls_146-158    H    0.29608011    0.37333988    0.33010908    0.05670000
opls_144-159    H    0.28604988    0.19160986    0.64258091    0.03350000
opls_547-160    H    0.18103983    0.04818005    0.47454927    0.05670000
opls_547-161    H    0.05281996    0.16763014    0.49277022    0.05670000
opls_146-162    H    0.16386008    0.09803997    0.84880105    0.05670000
opls_146-163    H    0.22565012    0.15629004    0.81370910    0.05670000
opls_146-164    H    0.15662017    0.20564987    0.05393942    0.05670000
opls_146-165    H    0.09808001    0.14422990    0.07111917    0.05670000
