#======================================================================
# Crystal Data Generated By AuToFF
#----------------------------------------------------------------------

data_AuToFF_phase_1

_cell_length_a                         21.4161
_cell_length_b                         21.4161
_cell_length_c                         7.9871
_cell_angle_alpha                      90.00
_cell_angle_beta                       90.00
_cell_angle_gamma                      90.00
_symmetry_space_group_name_H-M_alt     'P 1'
_symmetry_space_group_IT_number        1

loop_
_space_group_symop_operation_xyz
   'x, y, z'

loop_
   _atom_site_label
   _atom_site_type_symbol
   _atom_site_fract_x
   _atom_site_fract_y
   _atom_site_fract_z
   _atom_site_charge
opls_700-0    C    0.52975005    0.15193990    0.89064992    0.05590000
opls_145-1    C    0.47020980    0.12624988    0.91559014    -0.11850000
opls_145-2    C    0.46138980    0.07820005    0.03139062    -0.13140000
opls_700-3    C    0.51136014    0.05558015    0.12966033    0.04530000
opls_145-4    C    0.57152983    0.07993986    0.09748970    -0.13180000
opls_145-5    C    0.58029006    0.12800977    0.98152020    -0.11670000
opls_142-6    C    0.54032013    0.20276007    0.76890987    0.01280000
opls_700-7    C    0.02975005    0.65193990    0.39064992    0.05590000
opls_145-8    C    0.97020980    0.62624988    0.41559014    -0.11850000
opls_145-9    C    0.96138980    0.57820005    0.53139062    -0.13140000
opls_700-10    C    0.01136014    0.55558015    0.62966033    0.04530000
opls_145-11    C    0.07152983    0.57993986    0.59748970    -0.13190000
opls_145-12    C    0.08029006    0.62800977    0.48152020    -0.11670000
opls_142-13    C    0.04032013    0.70276007    0.26890987    0.01280000
opls_700-14    C    0.97024995    0.34806010    0.39064992    0.05590000
opls_145-15    C    0.02979020    0.37375012    0.41559014    -0.11850000
opls_145-16    C    0.03861020    0.42179995    0.53139062    -0.13140000
opls_700-17    C    0.98863986    0.44441985    0.62966033    0.04540000
opls_145-18    C    0.92847017    0.42006014    0.59748970    -0.13190000
opls_145-19    C    0.91970994    0.37199023    0.48152020    -0.11670000
opls_142-20    C    0.95967987    0.29723993    0.26890987    0.01280000
opls_700-21    C    0.47024995    0.84806010    0.89064992    0.05590000
opls_145-22    C    0.52979020    0.87375012    0.91559014    -0.11840000
opls_145-23    C    0.53861020    0.92179995    0.03139062    -0.13140000
opls_700-24    C    0.48863986    0.94441985    0.12966033    0.04530000
opls_145-25    C    0.42847017    0.92006014    0.09748970    -0.13190000
opls_145-26    C    0.41970994    0.87199023    0.98152020    -0.11670000
opls_142-27    C    0.45967987    0.79723993    0.76890987    0.01280000
opls_700-28    C    0.84806010    0.02975005    0.14065055    0.05590000
opls_145-29    C    0.87375012    0.97020980    0.16558951    -0.11840000
opls_145-30    C    0.92179995    0.96138980    0.28138999    -0.13140000
opls_700-31    C    0.94441985    0.01136014    0.37965970    0.04530000
opls_145-32    C    0.92006014    0.07152983    0.34749033    -0.13190000
opls_145-33    C    0.87199023    0.08029006    0.23151958    -0.11670000
opls_142-34    C    0.79723993    0.04032013    0.01891049    0.01280000
opls_700-35    C    0.34806010    0.52975005    0.64065055    0.05590000
opls_145-36    C    0.37375012    0.47020980    0.66558951    -0.11840000
opls_145-37    C    0.42179995    0.46138980    0.78138999    -0.13140000
opls_700-38    C    0.44441985    0.51136014    0.87965970    0.04530000
opls_145-39    C    0.42006014    0.57152983    0.84749033    -0.13190000
opls_145-40    C    0.37199023    0.58029006    0.73151958    -0.11670000
opls_142-41    C    0.29723993    0.54032013    0.51891049    0.01280000
opls_700-42    C    0.65193990    0.47024995    0.64065055    0.05590000
opls_145-43    C    0.62624988    0.52979020    0.66558951    -0.11850000
opls_145-44    C    0.57820005    0.53861020    0.78138999    -0.13140000
opls_700-45    C    0.55558015    0.48863986    0.87965970    0.04530000
opls_145-46    C    0.57993986    0.42847017    0.84749033    -0.13190000
opls_145-47    C    0.62800977    0.41970994    0.73151958    -0.11670000
opls_142-48    C    0.70276007    0.45967987    0.51891049    0.01280000
opls_700-49    C    0.15193990    0.97024995    0.14065055    0.05590000
opls_145-50    C    0.12624988    0.02979020    0.16558951    -0.11850000
opls_145-51    C    0.07820005    0.03861020    0.28138999    -0.13140000
opls_700-52    C    0.05558015    0.98863986    0.37965970    0.04530000
opls_145-53    C    0.07993986    0.92847017    0.34749033    -0.13190000
opls_145-54    C    0.12800977    0.91970994    0.23151958    -0.11670000
opls_142-55    C    0.20276007    0.95967987    0.01891049    0.01280000
opls_700-56    C    0.47024995    0.34806010    0.35934945    0.05590000
opls_145-57    C    0.52979020    0.37375012    0.33441049    -0.11850000
opls_145-58    C    0.53861020    0.42179995    0.21861001    -0.13140000
opls_700-59    C    0.48863986    0.44441985    0.12034030    0.04530000
opls_145-60    C    0.42847017    0.42006014    0.15250967    -0.13190000
opls_145-61    C    0.41970994    0.37199023    0.26848042    -0.11670000
opls_142-62    C    0.45967987    0.29723993    0.48108951    0.01280000
opls_700-63    C    0.97024995    0.84806010    0.85934945    0.05590000
opls_145-64    C    0.02979020    0.87375012    0.83441049    -0.11850000
opls_145-65    C    0.03861020    0.92179995    0.71861001    -0.13130000
opls_700-66    C    0.98863986    0.94441985    0.62034030    0.04530000
opls_145-67    C    0.92847017    0.92006014    0.65250967    -0.13190000
opls_145-68    C    0.91970994    0.87199023    0.76848042    -0.11670000
opls_142-69    C    0.95967987    0.79723993    0.98108951    0.01280000
opls_700-70    C    0.02975005    0.15193990    0.85934945    0.05590000
opls_145-71    C    0.97020980    0.12624988    0.83441049    -0.11850000
opls_145-72    C    0.96138980    0.07820005    0.71861001    -0.13140000
opls_700-73    C    0.01136014    0.05558015    0.62034030    0.04530000
opls_145-74    C    0.07152983    0.07993986    0.65250967    -0.13190000
opls_145-75    C    0.08029006    0.12800977    0.76848042    -0.11670000
opls_142-76    C    0.04032013    0.20276007    0.98108951    0.01280000
opls_700-77    C    0.52975005    0.65193990    0.35934945    0.05590000
opls_145-78    C    0.47020980    0.62624988    0.33441049    -0.11850000
opls_145-79    C    0.46138980    0.57820005    0.21861001    -0.13140000
opls_700-80    C    0.51136014    0.55558015    0.12034030    0.04530000
opls_145-81    C    0.57152983    0.57993986    0.15250967    -0.13190000
opls_145-82    C    0.58029006    0.62800977    0.26848042    -0.11670000
opls_142-83    C    0.54032013    0.70276007    0.48108951    0.01280000
opls_700-84    C    0.15193990    0.47024995    0.10935008    0.05590000
opls_145-85    C    0.12624988    0.52979020    0.08440986    -0.11850000
opls_145-86    C    0.07820005    0.53861020    0.96860938    -0.13140000
opls_700-87    C    0.05558015    0.48863986    0.87033967    0.04530000
opls_145-88    C    0.07993986    0.42847017    0.90251030    -0.13190000
opls_145-89    C    0.12800977    0.41970994    0.01847980    -0.11670000
opls_142-90    C    0.20276007    0.45967987    0.23109013    0.01280000
opls_700-91    C    0.65193990    0.97024995    0.60935008    0.05590000
opls_145-92    C    0.62624988    0.02979020    0.58440986    -0.11850000
opls_145-93    C    0.57820005    0.03861020    0.46860938    -0.13140000
opls_700-94    C    0.55558015    0.98863986    0.37033967    0.04530000
opls_145-95    C    0.57993986    0.92847017    0.40251030    -0.13180000
opls_145-96    C    0.62800977    0.91970994    0.51847980    -0.11670000
opls_142-97    C    0.70276007    0.95967987    0.73109013    0.01280000
opls_700-98    C    0.34806010    0.02975005    0.60935008    0.05590000
opls_145-99    C    0.37375012    0.97020980    0.58440986    -0.11850000
opls_145-100    C    0.42179995    0.96138980    0.46860938    -0.13140000
opls_700-101    C    0.44441985    0.01136014    0.37033967    0.04530000
opls_145-102    C    0.42006014    0.07152983    0.40251030    -0.13190000
opls_145-103    C    0.37199023    0.08029006    0.51847980    -0.11660000
opls_142-104    C    0.29723993    0.04032013    0.73109013    0.01280000
opls_700-105    C    0.84806010    0.52975005    0.10935008    0.05590000
opls_145-106    C    0.87375012    0.47020980    0.08440986    -0.11840000
opls_145-107    C    0.92179995    0.46138980    0.96860938    -0.13140000
opls_700-108    C    0.94441985    0.51136014    0.87033967    0.04530000
opls_145-109    C    0.92006014    0.57152983    0.90251030    -0.13180000
opls_145-110    C    0.87199023    0.58029006    0.01847980    -0.11670000
opls_142-111    C    0.79723993    0.54032013    0.23109013    0.01280000
opls_701-112    C    0.50000000    0.00000000    0.24999937    0.00440000
opls_701-113    C    0.00000000    0.50000000    0.75000063    0.00440000
opls_701-114    C    0.00000000    0.00000000    0.50000000    0.00440000
opls_701-115    C    0.50000000    0.50000000    0.00000000    0.00440000
opls_146-116    H    0.43047007    0.14294012    0.84468956    0.11610000
opls_146-117    H    0.41507978    0.05854988    0.04525047    0.11730000
opls_146-118    H    0.61254010    0.06125018    0.15835034    0.11680000
opls_146-119    H    0.62694982    0.14604013    0.96125002    0.11400000
opls_144-120    H    0.58709989    0.22103978    0.75186989    0.10640000
opls_146-121    H    0.93047007    0.64294012    0.34468956    0.11610000
opls_146-122    H    0.91507978    0.55854988    0.54525047    0.11730000
opls_146-123    H    0.11254010    0.56125018    0.65835034    0.11670000
opls_146-124    H    0.12694982    0.64604013    0.46125002    0.11400000
opls_144-125    H    0.08709989    0.72103978    0.25186989    0.10640000
opls_146-126    H    0.06952993    0.35705988    0.34468956    0.11610000
opls_146-127    H    0.08492022    0.44145012    0.54525047    0.11730000
opls_146-128    H    0.88745990    0.43874982    0.65835034    0.11670000
opls_146-129    H    0.87305018    0.35395987    0.46125002    0.11400000
opls_144-130    H    0.91290011    0.27896022    0.25186989    0.10650000
opls_146-131    H    0.56952993    0.85705988    0.84468956    0.11620000
opls_146-132    H    0.58492022    0.94145012    0.04525047    0.11730000
opls_146-133    H    0.38745990    0.93874982    0.15835034    0.11670000
opls_146-134    H    0.37305018    0.85395987    0.96125002    0.11410000
opls_144-135    H    0.41290011    0.77896022    0.75186989    0.10650000
opls_146-136    H    0.85705988    0.93047007    0.09469019    0.11610000
opls_146-137    H    0.94145012    0.91507978    0.29524984    0.11730000
opls_146-138    H    0.93874982    0.11254010    0.40834971    0.11670000
opls_146-139    H    0.85395987    0.12694982    0.21124939    0.11410000
opls_144-140    H    0.77896022    0.08709989    0.00187052    0.10640000
opls_146-141    H    0.35705988    0.43047007    0.59469019    0.11610000
opls_146-142    H    0.44145012    0.41507978    0.79524984    0.11730000
opls_146-143    H    0.43874982    0.61254010    0.90834971    0.11670000
opls_146-144    H    0.35395987    0.62694982    0.71124939    0.11400000
opls_144-145    H    0.27896022    0.58709989    0.50187052    0.10650000
opls_146-146    H    0.64294012    0.56952993    0.59469019    0.11610000
opls_146-147    H    0.55854988    0.58492022    0.79524984    0.11730000
opls_146-148    H    0.56125018    0.38745990    0.90834971    0.11670000
opls_146-149    H    0.64604013    0.37305018    0.71124939    0.11400000
opls_144-150    H    0.72103978    0.41290011    0.50187052    0.10640000
opls_146-151    H    0.14294012    0.06952993    0.09469019    0.11610000
opls_146-152    H    0.05854988    0.08492022    0.29524984    0.11740000
opls_146-153    H    0.06125018    0.88745990    0.40834971    0.11670000
opls_146-154    H    0.14604013    0.87305018    0.21124939    0.11410000
opls_144-155    H    0.22103978    0.91290011    0.00187052    0.10640000
opls_146-156    H    0.56952993    0.35705988    0.40530981    0.11610000
opls_146-157    H    0.58492022    0.44145012    0.20475016    0.11730000
opls_146-158    H    0.38745990    0.43874982    0.09165029    0.11670000
opls_146-159    H    0.37305018    0.35395987    0.28875061    0.11400000
opls_144-160    H    0.41290011    0.27896022    0.49812948    0.10640000
opls_146-161    H    0.06952993    0.85705988    0.90530981    0.11610000
opls_146-162    H    0.08492022    0.94145012    0.70475016    0.11730000
opls_146-163    H    0.88745990    0.93874982    0.59165029    0.11670000
opls_146-164    H    0.87305018    0.85395987    0.78875061    0.11400000
opls_144-165    H    0.91290011    0.77896022    0.99812948    0.10640000
opls_146-166    H    0.93047007    0.14294012    0.90530981    0.11610000
opls_146-167    H    0.91507978    0.05854988    0.70475016    0.11740000
opls_146-168    H    0.11254010    0.06125018    0.59165029    0.11670000
opls_146-169    H    0.12694982    0.14604013    0.78875061    0.11400000
opls_144-170    H    0.08709989    0.22103978    0.99812948    0.10640000
opls_146-171    H    0.43047007    0.64294012    0.40530981    0.11610000
opls_146-172    H    0.41507978    0.55854988    0.20475016    0.11730000
opls_146-173    H    0.61254010    0.56125018    0.09165029    0.11670000
opls_146-174    H    0.62694982    0.64604013    0.28875061    0.11400000
opls_144-175    H    0.58709989    0.72103978    0.49812948    0.10640000
opls_146-176    H    0.14294012    0.56952993    0.15531044    0.11610000
opls_146-177    H    0.05854988    0.58492022    0.95474953    0.11730000
opls_146-178    H    0.06125018    0.38745990    0.84164966    0.11680000
opls_146-179    H    0.14604013    0.37305018    0.03874998    0.11420000
opls_144-180    H    0.22103978    0.41290011    0.24813011    0.10640000
opls_146-181    H    0.64294012    0.06952993    0.65531044    0.11610000
opls_146-182    H    0.55854988    0.08492022    0.45474953    0.11740000
opls_146-183    H    0.56125018    0.88745990    0.34164966    0.11680000
opls_146-184    H    0.64604013    0.87305018    0.53874998    0.11400000
opls_144-185    H    0.72103978    0.91290011    0.74813011    0.10640000
opls_146-186    H    0.35705988    0.93047007    0.65531044    0.11610000
opls_146-187    H    0.44145012    0.91507978    0.45474953    0.11730000
opls_146-188    H    0.43874982    0.11254010    0.34164966    0.11670000
opls_146-189    H    0.35395987    0.12694982    0.53874998    0.11400000
opls_144-190    H    0.27896022    0.08709989    0.74813011    0.10650000
opls_146-191    H    0.85705988    0.43047007    0.15531044    0.11610000
opls_146-192    H    0.94145012    0.41507978    0.95474953    0.11730000
opls_146-193    H    0.93874982    0.61254010    0.84164966    0.11670000
opls_146-194    H    0.85395987    0.62694982    0.03874998    0.11400000
opls_144-195    H    0.77896022    0.58709989    0.24813011    0.10640000
opls_750-196    N    0.49469978    0.22590014    0.68246047    -0.18720000
opls_750-197    N    0.99469978    0.72590014    0.18246047    -0.18730000
opls_750-198    N    0.00530022    0.27409986    0.18246047    -0.18730000
opls_750-199    N    0.50530022    0.77409986    0.68246047    -0.18720000
opls_750-200    N    0.77409986    0.99469978    0.93245984    -0.18730000
opls_750-201    N    0.27409986    0.49469978    0.43245984    -0.18730000
opls_750-202    N    0.72590014    0.50530022    0.43245984    -0.18730000
opls_750-203    N    0.22590014    0.00530022    0.93245984    -0.18720000
opls_750-204    N    0.50530022    0.27409986    0.56754016    -0.18730000
opls_750-205    N    0.00530022    0.77409986    0.06754016    -0.18720000
opls_750-206    N    0.99469978    0.22590014    0.06754016    -0.18730000
opls_750-207    N    0.49469978    0.72590014    0.56754016    -0.18720000
opls_750-208    N    0.22590014    0.50530022    0.31753953    -0.18730000
opls_750-209    N    0.72590014    0.00530022    0.81753953    -0.18720000
opls_750-210    N    0.27409986    0.99469978    0.81753953    -0.18730000
opls_750-211    N    0.77409986    0.49469978    0.31753953    -0.18730000
