#======================================================================
# Crystal Data Generated By AuToFF
#----------------------------------------------------------------------

data_AuToFF_phase_1

_cell_length_a                         35.9258
_cell_length_b                         35.9258
_cell_length_c                         4.4226
_cell_angle_alpha                      90.00
_cell_angle_beta                       90.00
_cell_angle_gamma                      120.00
_symmetry_space_group_name_H-M_alt     'P 1'
_symmetry_space_group_IT_number        1

loop_
_space_group_symop_operation_xyz
   'x, y, z'

loop_
   _atom_site_label
   _atom_site_type_symbol
   _atom_site_fract_x
   _atom_site_fract_y
   _atom_site_fract_z
   _atom_site_charge
opls_145-0    C    0.46055984    0.47456984    0.00000000    -0.24330000
opls_145-1    C    0.47429006    0.51663985    0.00000000    0.00710000
opls_145-2    C    0.51657992    0.54456000    0.00000000    -0.24320000
opls_142-3    C    0.44411983    0.53065987    0.00000000    0.07960000
opls_145-4    C    0.37751989    0.69288000    0.00000000    -0.11870000
opls_145-5    C    0.35529001    0.71382003    0.00000000    0.05530000
opls_145-6    C    0.84786003    0.43063981    0.00000000    0.12240000
opls_145-7    C    0.76048984    0.38358983    0.00000000    0.06010000
opls_145-8    C    0.82768988    0.38775984    0.00000000    -0.24330000
opls_145-9    C    0.82448994    0.44978989    0.00000000    -0.24600000
opls_145-10    C    0.78497000    0.36475988    0.00000000    -0.23950000
opls_145-11    C    0.78179995    0.42702006    0.00000000    -0.23950000
opls_145-12    C    0.52542988    0.98598995    0.00000000    -0.24330000
opls_145-13    C    0.48335976    0.95764972    0.00000000    0.00710000
opls_145-14    C    0.45543992    0.97201975    0.00000000    -0.24330000
opls_142-15    C    0.46933987    0.91345999    0.00000000    0.07960000
opls_145-16    C    0.30711992    0.68463995    0.00000000    -0.11870000
opls_145-17    C    0.28617992    0.64147006    0.00000000    0.05530000
opls_145-18    C    0.56935987    0.41721987    0.00000000    0.12240000
opls_145-19    C    0.61641010    0.37689995    0.00000000    0.06010000
opls_145-20    C    0.61223987    0.43992992    0.00000000    -0.24330000
opls_145-21    C    0.55021006    0.37469988    0.00000000    -0.24600000
opls_145-22    C    0.63523985    0.42020997    0.00000000    -0.23960000
opls_145-23    C    0.57298009    0.35478002    0.00000000    -0.23960000
opls_145-24    C    0.01400984    0.53943989    0.00000000    -0.24330000
opls_145-25    C    0.04234985    0.52570979    0.00000000    0.00710000
opls_145-26    C    0.02798000    0.48341993    0.00000000    -0.24330000
opls_142-27    C    0.08653986    0.55587983    0.00000000    0.07960000
opls_145-28    C    0.31535990    0.62248005    0.00000000    -0.11870000
opls_145-29    C    0.35853007    0.64470990    0.00000000    0.05530000
opls_145-30    C    0.58277994    0.15214000    0.00000000    0.12240000
opls_145-31    C    0.62309990    0.23950990    0.00000000    0.06010000
opls_145-32    C    0.56007009    0.17230992    0.00000000    -0.24330000
opls_145-33    C    0.62529984    0.17550990    0.00000000    -0.24600000
opls_145-34    C    0.57978999    0.21502983    0.00000000    -0.23960000
opls_145-35    C    0.64521996    0.21819992    0.00000000    -0.23960000
opls_145-36    C    0.53944000    0.52542984    0.00000000    -0.24330000
opls_145-37    C    0.52570978    0.48335983    0.00000000    0.00710000
opls_145-38    C    0.48342008    0.45544000    0.00000000    -0.24330000
opls_142-39    C    0.55588001    0.46933981    0.00000000    0.07960000
opls_145-40    C    0.62248011    0.30712000    0.00000000    -0.11870000
opls_145-41    C    0.64470999    0.28617997    0.00000000    0.05530000
opls_145-42    C    0.15213981    0.56935987    0.00000000    0.12240000
opls_145-43    C    0.23951000    0.61640985    0.00000000    0.06010000
opls_145-44    C    0.17230996    0.61223984    0.00000000    -0.24330000
opls_145-45    C    0.17550989    0.55020979    0.00000000    -0.24600000
opls_145-46    C    0.21502984    0.63523980    0.00000000    -0.23960000
opls_145-47    C    0.21820005    0.57297994    0.00000000    -0.23960000
opls_145-48    C    0.47457012    0.01401005    0.00000000    -0.24330000
opls_145-49    C    0.51664008    0.04234996    0.00000000    0.00710000
opls_145-50    C    0.54455992    0.02797993    0.00000000    -0.24330000
opls_142-51    C    0.53066013    0.08654001    0.00000000    0.07960000
opls_145-52    C    0.69288008    0.31536005    0.00000000    -0.11860000
opls_145-53    C    0.71382008    0.35852994    0.00000000    0.05530000
opls_145-54    C    0.43063997    0.58277981    0.00000000    0.12240000
opls_145-55    C    0.38358990    0.62310005    0.00000000    0.06010000
opls_145-56    C    0.38775997    0.56006976    0.00000000    -0.24330000
opls_145-57    C    0.44978978    0.62529980    0.00000000    -0.24600000
opls_145-58    C    0.36476015    0.57979003    0.00000000    -0.23950000
opls_145-59    C    0.42701991    0.64521998    0.00000000    -0.23950000
opls_145-60    C    0.98598999    0.46055978    0.00000000    -0.24330000
opls_145-61    C    0.95764998    0.47428989    0.00000000    0.00710000
opls_145-62    C    0.97202000    0.51658007    0.00000000    -0.24330000
opls_142-63    C    0.91345998    0.44411985    0.00000000    0.07960000
opls_145-64    C    0.68464010    0.37751995    0.00000000    -0.11870000
opls_145-65    C    0.64146993    0.35529010    0.00000000    0.05530000
opls_145-66    C    0.41722006    0.84786000    0.00000000    0.12240000
opls_145-67    C    0.37689994    0.76048978    0.00000000    0.06010000
opls_145-68    C    0.43992975    0.82768976    0.00000000    -0.24330000
opls_145-69    C    0.37470000    0.82448977    0.00000000    -0.24600000
opls_145-70    C    0.42020985    0.78496985    0.00000000    -0.23960000
opls_145-71    C    0.35477988    0.78179976    0.00000000    -0.23950000
opls_750-72    N    0.45606009    0.56948008    0.00000000    -0.21740000
opls_750-73    N    0.43052003    0.88657993    0.00000000    -0.21720000
opls_750-74    N    0.11341987    0.54393999    0.00000000    -0.21740000
opls_750-75    N    0.54393991    0.43051992    0.00000000    -0.21730000
opls_750-76    N    0.56947997    0.11342007    0.00000000    -0.21740000
opls_750-77    N    0.88658013    0.45606001    0.00000000    -0.21740000
opls_146-78    H    0.42812002    0.45249008    0.00000000    0.19580000
opls_146-79    H    0.52810004    0.57721005    0.00000000    0.19590000
opls_144-80    H    0.41204990    0.50779008    0.00000000    0.09520000
opls_146-81    H    0.40988996    0.71025975    0.00000000    0.19640000
opls_146-82    H    0.84431002    0.37137005    0.00000000    0.19580000
opls_146-83    H    0.83955997    0.48288992    0.00000000    0.19580000
opls_146-84    H    0.77245000    0.33217989    0.00000000    0.19590000
opls_146-85    H    0.76678001    0.44481989    0.00000000    0.19580000
opls_146-86    H    0.54750991    0.97562986    0.00000000    0.19580000
opls_146-87    H    0.42278997    0.95088977    0.00000000    0.19580000
opls_144-88    H    0.49221005    0.90425987    0.00000000    0.09520000
opls_146-89    H    0.28974006    0.69962999    0.00000000    0.19640000
opls_146-90    H    0.62862993    0.47293995    0.00000000    0.19580000
opls_146-91    H    0.51710988    0.35666992    0.00000000    0.19580000
opls_146-92    H    0.66781994    0.44026997    0.00000000    0.19590000
opls_146-93    H    0.55517996    0.32195994    0.00000000    0.19580000
opls_146-94    H    0.02437007    0.57188006    0.00000000    0.19580000
opls_146-95    H    0.04910983    0.47189986    0.00000000    0.19580000
opls_144-96    H    0.09574005    0.58795005    0.00000000    0.09520000
opls_146-97    H    0.30037009    0.59010994    0.00000000    0.19640000
opls_146-98    H    0.52706005    0.15569000    0.00000000    0.19580000
opls_146-99    H    0.64332999    0.16043983    0.00000000    0.19580000
opls_146-100    H    0.55972990    0.22754981    0.00000000    0.19580000
opls_146-101    H    0.67803987    0.23321985    0.00000000    0.19590000
opls_146-102    H    0.57187998    0.54750992    0.00000000    0.19580000
opls_146-103    H    0.47189996    0.42278995    0.00000000    0.19580000
opls_144-104    H    0.58795010    0.49220992    0.00000000    0.09520000
opls_146-105    H    0.59010988    0.28973993    0.00000000    0.19640000
opls_146-106    H    0.15568998    0.62862995    0.00000000    0.19590000
opls_146-107    H    0.16044003    0.51711008    0.00000000    0.19580000
opls_146-108    H    0.22754984    0.66781979    0.00000000    0.19580000
opls_146-109    H    0.23321983    0.55517979    0.00000000    0.19580000
opls_146-110    H    0.45249009    0.02437014    0.00000000    0.19580000
opls_146-111    H    0.57720987    0.04910991    0.00000000    0.19580000
opls_144-112    H    0.50778995    0.09574013    0.00000000    0.09520000
opls_146-113    H    0.71025994    0.30037001    0.00000000    0.19650000
opls_146-114    H    0.37137007    0.52706005    0.00000000    0.19580000
opls_146-115    H    0.48288996    0.64332976    0.00000000    0.19580000
opls_146-116    H    0.33218006    0.55973003    0.00000000    0.19580000
opls_146-117    H    0.44481988    0.67803974    0.00000000    0.19590000
opls_146-118    H    0.97562993    0.42811994    0.00000000    0.19580000
opls_146-119    H    0.95089001    0.52809982    0.00000000    0.19580000
opls_144-120    H    0.90425995    0.41204995    0.00000000    0.09520000
opls_146-121    H    0.69962991    0.40989006    0.00000000    0.19640000
opls_146-122    H    0.47293995    0.84431000    0.00000000    0.19590000
opls_146-123    H    0.35666985    0.83955984    0.00000000    0.19580000
opls_146-124    H    0.44026994    0.77244986    0.00000000    0.19580000
opls_146-125    H    0.32195997    0.76677983    0.00000000    0.19580000
