#======================================================================
# Crystal Data Generated By AuToFF
#----------------------------------------------------------------------

data_AuToFF_phase_1

_cell_length_a                         31.0054
_cell_length_b                         31.4608
_cell_length_c                         7.7026
_cell_angle_alpha                      99.27
_cell_angle_beta                       87.68
_cell_angle_gamma                      120.52
_symmetry_space_group_name_H-M_alt     'P 1'
_symmetry_space_group_IT_number        1

loop_
_space_group_symop_operation_xyz
   'x, y, z'

loop_
   _atom_site_label
   _atom_site_type_symbol
   _atom_site_fract_x
   _atom_site_fract_y
   _atom_site_fract_z
   _atom_site_charge
opls_145-0    C    0.14610023    0.24301018    0.89702970    -0.12310000
opls_700-1    C    0.16611007    0.21148004    0.89287991    0.07380000
opls_145-2    C    0.21854004    0.23301996    0.90105042    -0.13240000
opls_700-3    C    0.25066998    0.28502989    0.91054976    0.07410000
opls_145-4    C    0.22955014    0.31576004    0.92165976    -0.14360000
opls_700-5    C    0.17723011    0.29532008    0.91622987    0.07400000
opls_700-6    C    0.30565012    0.30688016    0.90142971    0.07390000
opls_145-7    C    0.34021005    0.35543003    0.98804055    -0.12410000
opls_145-8    C    0.32506002    0.27971998    0.79797081    -0.12400000
opls_145-9    C    0.39158999    0.37594008    0.96913011    -0.11570000
opls_145-10    C    0.37637010    0.30014021    0.77951077    -0.12370000
opls_700-11    C    0.41100004    0.34909006    0.86292005    0.06160000
opls_700-12    C    0.13174983    0.15670995    0.87890022    0.07450000
opls_145-13    C    0.08514993    0.13777018    0.95865094    -0.12390000
opls_145-14    C    0.14352998    0.12188007    0.78428085    -0.12410000
opls_145-15    C    0.05149998    0.08657013    0.94207023    -0.12420000
opls_145-16    C    0.10979010    0.07058023    0.76768039    -0.17300000
opls_700-17    C    0.06257997    0.05159023    0.84387001    0.06160000
opls_700-18    C    0.15516996    0.32793996    0.93252085    0.06730000
opls_145-19    C    0.18097999    0.37560994    0.88109035    -0.12410000
opls_145-20    C    0.10775982    0.31249984    0.00396936    -0.13590000
opls_145-21    C    0.16111981    0.40705987    0.90533981    -0.11980000
opls_145-22    C    0.08724989    0.34341998    0.02434955    -0.12370000
opls_700-23    C    0.11410011    0.39165992    0.97889021    0.06280000
opls_142-24    C    0.46559008    0.37300012    0.84610096    -0.02930000
opls_716-25    C    0.49888006    0.30178998    0.56006063    0.26220000
opls_716-26    C    0.57443985    0.29927995    0.48873987    0.26820000
opls_142-27    C    0.69503018    0.36547999    0.64046984    0.02810000
opls_700-28    C    0.72809011    0.41208003    0.75731975    0.06460000
opls_145-29    C    0.77901990    0.42719006    0.78294017    -0.12390000
opls_145-30    C    0.71124023    0.44386010    0.84256094    -0.12420000
opls_145-31    C    0.81199029    0.47271024    0.88587097    -0.12390000
opls_145-32    C    0.74439011    0.48942000    0.94517039    -0.12810000
opls_700-33    C    0.79572003    0.50532996    0.96769988    0.07370000
opls_700-34    C    0.83194000    0.55499000    0.06839050    0.07370000
opls_145-35    C    0.82285012    0.59500010    0.08678995    -0.12050000
opls_145-36    C    0.87693994    0.56366999    0.14392954    -0.13240000
opls_700-37    C    0.85824996    0.64264003    0.17531963    0.07130000
opls_700-38    C    0.91333997    0.61106006    0.23244999    0.07420000
opls_145-39    C    0.90344013    0.65054005    0.24452007    -0.12050000
opls_700-40    C    0.84707013    0.68389994    0.19967049    0.06730000
opls_700-41    C    0.96100002    0.61953995    0.30726996    0.07250000
opls_145-42    C    0.88133022    0.73147004    0.15729025    -0.12410000
opls_145-43    C    0.80130994    0.67581997    0.27002987    -0.11980000
opls_145-44    C    0.97626990    0.58375983    0.26722998    -0.11570000
opls_145-45    C    0.99395027    0.66469013    0.41847004    -0.12420000
opls_145-46    C    0.87004013    0.76960999    0.18259987    -0.13590000
opls_145-47    C    0.79035015    0.71411004    0.29850023    -0.12400000
opls_145-48    C    0.02221010    0.59291986    0.33024064    -0.12420000
opls_145-49    C    0.03986997    0.67402011    0.48174015    -0.12390000
opls_700-50    C    0.82431993    0.76158985    0.25429070    0.07440000
opls_700-51    C    0.05539010    0.63867014    0.43738970    0.06920000
opls_142-52    C    0.10489014    0.65090014    0.49978007    0.02810000
opls_716-53    C    0.18258997    0.60504005    0.43377988    0.25650000
opls_716-54    C    0.17953020    0.53152998    0.26559957    0.26820000
opls_142-55    C    0.09347008    0.42552993    0.01299064    -0.02860000
opls_142-56    C    0.02798988    0.99709987    0.81976015    -0.02880000
opls_716-57    C    0.92137012    0.97386010    0.02776051    0.26220000
opls_716-58    C    0.85291992    0.91575987    0.18807058    0.26110000
opls_142-59    C    0.81094995    0.80045980    0.28270970    0.02810000
opls_145-60    C    0.14610006    0.24301018    0.39702970    -0.12310000
opls_700-61    C    0.16610991    0.21148004    0.39287991    0.07380000
opls_145-62    C    0.21853988    0.23301996    0.40105042    -0.13240000
opls_700-63    C    0.25066982    0.28502989    0.41054976    0.07390000
opls_145-64    C    0.22954998    0.31576004    0.42165976    -0.14360000
opls_700-65    C    0.17722995    0.29532008    0.41622987    0.07400000
opls_700-66    C    0.30565996    0.30688016    0.40142971    0.07390000
opls_145-67    C    0.34020988    0.35543003    0.48804055    -0.12410000
opls_145-68    C    0.32505984    0.27971992    0.29796949    -0.12400000
opls_145-69    C    0.39159015    0.37594008    0.46913011    -0.11570000
opls_145-70    C    0.37637025    0.30014015    0.27950945    -0.12370000
opls_700-71    C    0.41100020    0.34909006    0.36292005    0.06160000
opls_700-72    C    0.13174999    0.15670995    0.37890022    0.07450000
opls_145-73    C    0.08515007    0.13777012    0.45864963    -0.12390000
opls_145-74    C    0.14353012    0.12188001    0.28427954    -0.12410000
opls_145-75    C    0.05150014    0.08657013    0.44207023    -0.12420000
opls_145-76    C    0.10979007    0.07057986    0.26768039    -0.12730000
opls_700-77    C    0.06257994    0.05158987    0.34387001    0.06160000
opls_700-78    C    0.15517010    0.32793990    0.43251953    0.06730000
opls_145-79    C    0.18098015    0.37560994    0.38109035    -0.12410000
opls_145-80    C    0.10776024    0.31250015    0.50396014    -0.13590000
opls_145-81    C    0.16111997    0.40705987    0.40533981    -0.11980000
opls_145-82    C    0.08725011    0.34341992    0.52434033    -0.12370000
opls_700-83    C    0.11409995    0.39165992    0.47889021    0.06280000
opls_142-84    C    0.46558990    0.37300006    0.34609965    -0.02850000
opls_716-85    C    0.49887989    0.30178998    0.06006063    0.26220000
opls_716-86    C    0.57444001    0.29927995    0.98873987    0.26820000
opls_142-87    C    0.69503002    0.36547999    0.14046984    0.02810000
opls_700-88    C    0.72808995    0.41208003    0.25731975    0.06460000
opls_145-89    C    0.77902006    0.42719006    0.28294017    -0.12390000
opls_145-90    C    0.71124005    0.44386004    0.34255962    -0.12420000
opls_145-91    C    0.81198992    0.47270981    0.38586965    -0.12390000
opls_145-92    C    0.74438992    0.48942997    0.44517039    -0.12110000
opls_700-93    C    0.79572986    0.50532996    0.46769988    0.07370000
opls_700-94    C    0.83194016    0.55499000    0.56839050    0.07370000
opls_145-95    C    0.82284995    0.59500010    0.58678995    -0.12050000
opls_145-96    C    0.87694006    0.56367011    0.64394007    -0.13240000
opls_700-97    C    0.85825013    0.64264003    0.67531963    0.07130000
opls_700-98    C    0.91334013    0.61106006    0.73244999    0.07420000
opls_145-99    C    0.90343997    0.65054005    0.74452007    -0.12050000
opls_700-100    C    0.84706997    0.68389994    0.69967049    0.06730000
opls_700-101    C    0.96100013    0.61954007    0.80728050    0.07250000
opls_145-102    C    0.88133006    0.73147004    0.65729025    -0.12410000
opls_145-103    C    0.80131010    0.67581997    0.77002987    -0.11980000
opls_145-104    C    0.97627025    0.58376020    0.76722998    -0.11570000
opls_145-105    C    0.99395011    0.66469013    0.91847004    -0.12420000
opls_145-106    C    0.87003997    0.76960999    0.68259987    -0.13590000
opls_145-107    C    0.79034999    0.71411004    0.79850023    -0.12400000
opls_145-108    C    0.02221013    0.59292023    0.83024064    -0.12410000
opls_145-109    C    0.03987013    0.67402011    0.98174015    -0.12390000
opls_700-110    C    0.82432029    0.76159022    0.75429070    0.07440000
opls_700-111    C    0.05539003    0.63866989    0.93740024    0.06920000
opls_142-112    C    0.10488998    0.65090014    0.99978007    0.02810000
opls_716-113    C    0.18259013    0.60504005    0.93377988    0.25650000
opls_716-114    C    0.17952999    0.53153010    0.76561010    0.26820000
opls_142-115    C    0.09346991    0.42552993    0.51299064    -0.02880000
opls_142-116    C    0.02799004    0.99709987    0.31976015    -0.02880000
opls_716-117    C    0.92136996    0.97386010    0.52776051    0.26220000
opls_716-118    C    0.85292008    0.91575987    0.68807058    0.26120000
opls_142-119    C    0.81095031    0.80046017    0.78270970    0.02810000
opls_146-120    H    0.10521017    0.22625024    0.88179098    0.08050000
opls_146-121    H    0.23465022    0.20892021    0.90295081    0.11100000
opls_146-122    H    0.25450992    0.35652990    0.93313061    0.08390000
opls_146-123    H    0.32703024    0.37749024    0.07491084    0.08380000
opls_146-124    H    0.29950010    0.24212008    0.72514078    0.08050000
opls_146-125    H    0.41743007    0.41385001    0.03942101    0.08310000
opls_146-126    H    0.39005990    0.27808986    0.69541008    0.10990000
opls_146-127    H    0.07522021    0.16345012    0.03993067    0.14190000
opls_146-128    H    0.17905014    0.13490008    0.71710987    0.08220000
opls_146-129    H    0.01580989    0.07313012    0.00837069    0.08380000
opls_146-130    H    0.11988015    0.04459016    0.68955086    0.09470000
opls_146-131    H    0.21711999    0.38842996    0.81810076    0.14600000
opls_146-132    H    0.08680011    0.27617014    0.05015962    0.10990000
opls_146-133    H    0.18179008    0.44369024    0.86145031    0.07720000
opls_146-134    H    0.05063002    0.33065998    0.08383993    0.10120000
opls_144-135    H    0.48861007    0.40948002    0.93335976    0.04950000
opls_910-136    H    0.46208008    0.24760994    0.34201044    0.28800000
opls_910-137    H    0.53092988    0.22669994    0.35400018    0.28060000
opls_146-138    H    0.79324982    0.40315989    0.71818057    0.10120000
opls_146-139    H    0.67152013    0.43257993    0.82706014    0.06460000
opls_146-140    H    0.85160022    0.48339013    0.89840988    0.09960000
opls_146-141    H    0.72957014    0.51283991    0.01051999    0.10990000
opls_146-142    H    0.78859990    0.58986997    0.02638954    0.08200000
opls_146-143    H    0.88331004    0.53206992    0.13510054    0.07080000
opls_146-144    H    0.93068023    0.68831016    0.31156989    0.12590000
opls_146-145    H    0.91702016    0.73839999    0.09985961    0.10220000
opls_146-146    H    0.77432991    0.63927993    0.30710007    0.08220000
opls_146-147    H    0.95247026    0.54794016    0.18081010    0.06690000
opls_146-148    H    0.98381993    0.69351985    0.45945957    0.08460000
opls_146-149    H    0.89690999    0.80626015    0.14609069    0.08220000
opls_146-150    H    0.75474002    0.70719020    0.35669076    0.09470000
opls_146-151    H    0.03298000    0.56439009    0.29371039    0.07260000
opls_146-152    H    0.06438029    0.70966019    0.56821007    0.11100000
opls_910-153    H    0.24693998    0.62082004    0.56837074    0.28840000
opls_910-154    H    0.25675007    0.56557011    0.30784021    0.28190000
opls_910-155    H    0.90910005    0.02928001    0.15992946    0.28940000
opls_910-156    H    0.81816016    0.95707015    0.17973018    0.28190000
opls_144-157    H    0.04355016    0.97373006    0.75616081    0.04950000
opls_144-158    H    0.12788001    0.68736011    0.58840061    0.04730000
opls_144-159    H    0.77635005    0.79267993    0.35472056    0.04720000
opls_144-160    H    0.05374012    0.41060002    0.97152964    0.06440000
opls_144-161    H    0.71161008    0.34353000    0.57107976    0.04730000
opls_146-162    H    0.10521005    0.22625012    0.38178044    0.08050000
opls_146-163    H    0.23465005    0.20892015    0.40294950    0.11100000
opls_146-164    H    0.25451008    0.35652990    0.43313061    0.08380000
opls_146-165    H    0.32703008    0.37749024    0.57491084    0.08380000
opls_146-166    H    0.29949992    0.24212002    0.22513947    0.08050000
opls_146-167    H    0.41743988    0.41384995    0.53941969    0.10220000
opls_146-168    H    0.39006006    0.27808986    0.19541008    0.11000000
opls_146-169    H    0.07522005    0.16345012    0.53993067    0.14190000
opls_146-170    H    0.17904997    0.13490008    0.21710987    0.08050000
opls_146-171    H    0.01581005    0.07313012    0.50837069    0.08380000
opls_146-172    H    0.11988005    0.04458985    0.18956008    0.09470000
opls_146-173    H    0.21712015    0.38842996    0.31810076    0.14600000
opls_146-174    H    0.08679994    0.27617014    0.55015962    0.11100000
opls_146-175    H    0.18179005    0.44368987    0.36145031    0.07720000
opls_146-176    H    0.05062993    0.33065993    0.58383071    0.10120000
opls_144-177    H    0.48860991    0.40948002    0.43335976    0.04950000
opls_910-178    H    0.46207992    0.24760994    0.84201044    0.28800000
opls_910-179    H    0.53094004    0.22669994    0.85400018    0.28070000
opls_146-180    H    0.79324998    0.40315989    0.21818057    0.10120000
opls_146-181    H    0.67151996    0.43257993    0.32706014    0.06460000
opls_146-182    H    0.85161006    0.48339013    0.39840988    0.06690000
opls_146-183    H    0.72956998    0.51283991    0.51051999    0.08220000
opls_146-184    H    0.78860006    0.58986997    0.52638954    0.08200000
opls_146-185    H    0.88330988    0.53206992    0.63510054    0.07080000
opls_146-186    H    0.93067984    0.68830991    0.81158042    0.09960000
opls_146-187    H    0.91702000    0.73839999    0.59985961    0.10220000
opls_146-188    H    0.77433000    0.63928024    0.80709086    0.08220000
opls_146-189    H    0.95247007    0.54795012    0.68081010    0.09090000
opls_146-190    H    0.98382011    0.69351991    0.95946088    0.08460000
opls_146-191    H    0.89691015    0.80626015    0.64609069    0.08220000
opls_146-192    H    0.75474018    0.70719020    0.85669076    0.09470000
opls_146-193    H    0.03298016    0.56439009    0.79371039    0.07260000
opls_146-194    H    0.06438013    0.70966019    0.06821007    0.11100000
opls_910-195    H    0.24694014    0.62082004    0.06837074    0.28820000
opls_910-196    H    0.25675023    0.56557011    0.80784021    0.28190000
opls_910-197    H    0.90910023    0.02928007    0.65993078    0.28950000
opls_910-198    H    0.81816000    0.95707015    0.67973018    0.28190000
opls_144-199    H    0.04354999    0.97373000    0.25615949    0.04950000
opls_144-200    H    0.12788017    0.68736011    0.08840061    0.04730000
opls_144-201    H    0.77635012    0.79268018    0.85471003    0.04720000
opls_144-202    H    0.05374996    0.41060002    0.47152964    0.06430000
opls_144-203    H    0.71161023    0.34353015    0.06999984    0.04820000
opls_750-204    N    0.49059009    0.35687990    0.74465045    -0.15410000
opls_750-205    N    0.46538026    0.31227021    0.62945072    -0.29420000
opls_238-206    N    0.48865999    0.25896012    0.44355973    -0.22910000
opls_238-207    N    0.53350006    0.26127991    0.38579985    -0.22910000
opls_750-208    N    0.62026017    0.30713998    0.49273030    -0.27130000
opls_750-209    N    0.64813996    0.35048989    0.61163995    -0.16280000
opls_750-210    N    0.12293018    0.62183006    0.45087026    -0.16300000
opls_750-211    N    0.17139005    0.63853007    0.50893962    -0.27100000
opls_238-212    N    0.22823989    0.60728995    0.44519014    -0.22900000
opls_238-213    N    0.22418986    0.56171993    0.36405001    -0.22910000
opls_750-214    N    0.16675992    0.48975000    0.15795005    -0.28170000
opls_750-215    N    0.11799004    0.47100010    0.09575065    -0.16580000
opls_750-216    N    0.98162015    0.97258988    0.86369970    -0.16410000
opls_750-217    N    0.95870990    0.99897989    0.93156999    -0.26490000
opls_238-218    N    0.89035001    0.99235989    0.09528971    -0.24220000
opls_238-219    N    0.85255012    0.95960006    0.19509005    -0.23490000
opls_750-220    N    0.82069005    0.87624007    0.25665994    -0.27470000
opls_750-221    N    0.83740017    0.84260998    0.22503016    -0.16310000
opls_750-222    N    0.49058990    0.35688986    0.24465045    -0.15410000
opls_750-223    N    0.46537989    0.31226978    0.12944940    -0.29420000
opls_238-224    N    0.48866015    0.25896012    0.94355973    -0.22910000
opls_238-225    N    0.53349990    0.26127991    0.88579985    -0.22900000
opls_750-226    N    0.62026001    0.30713998    0.99273030    -0.27130000
opls_750-227    N    0.64814012    0.35048989    0.11163995    -0.16280000
opls_750-228    N    0.12293002    0.62183006    0.95087026    -0.16300000
opls_750-229    N    0.17139021    0.63853007    0.00893962    -0.27110000
opls_238-230    N    0.22824005    0.60728995    0.94519014    -0.22900000
opls_238-231    N    0.22419003    0.56171993    0.86405001    -0.22910000
opls_750-232    N    0.16676004    0.48975012    0.65796059    -0.27470000
opls_750-233    N    0.11800020    0.47100010    0.59575065    -0.16580000
opls_750-234    N    0.98161999    0.97258988    0.36369970    -0.16410000
opls_750-235    N    0.95871006    0.99897989    0.43156999    -0.26490000
opls_238-236    N    0.89035017    0.99235989    0.59528971    -0.24210000
opls_238-237    N    0.85254996    0.95960006    0.69509005    -0.23490000
opls_750-238    N    0.82069021    0.87624007    0.75665994    -0.27470000
opls_750-239    N    0.83740001    0.84260998    0.72503016    -0.16310000
opls_633-240    S    0.56266005    0.34187014    0.63148017    0.04490000
opls_633-241    S    0.13554990    0.55180992    0.29659062    0.04930000
opls_633-242    S    0.90373022    0.91442009    0.08346986    0.04610000
opls_633-243    S    0.56266021    0.34187014    0.13148017    0.04490000
opls_633-244    S    0.13555006    0.55180992    0.79659062    0.04930000
opls_633-245    S    0.90373005    0.91442009    0.58346986    0.04610000
