#======================================================================
# Crystal Data Generated By AuToFF
#----------------------------------------------------------------------

data_AuToFF_phase_1

_cell_length_a                         48.2736
_cell_length_b                         47.2163
_cell_length_c                         10.4726
_cell_angle_alpha                      90.00
_cell_angle_beta                       90.00
_cell_angle_gamma                      118.76
_symmetry_space_group_name_H-M_alt     'P 1'
_symmetry_space_group_IT_number        1

loop_
_space_group_symop_operation_xyz
   'x, y, z'

loop_
   _atom_site_label
   _atom_site_type_symbol
   _atom_site_fract_x
   _atom_site_fract_y
   _atom_site_fract_z
   _atom_site_charge
opls_145-0    C    0.34170989    0.80217992    0.50000000    -0.15900000
opls_523-1    C    0.35693997    0.78303009    0.50000000    0.19820000
opls_522-2    C    0.33846001    0.74933004    0.50000000    -0.24750000
opls_521-3    C    0.30546994    0.73476991    0.50000000    0.19860000
opls_700-4    C    0.29052007    0.75417005    0.50000000    0.01460000
opls_523-5    C    0.30877988    0.78780994    0.50000000    -0.11290000
opls_521-6    C    0.25559984    0.68707992    0.50000000    0.19870000
opls_700-7    C    0.23981008    0.70571006    0.50000000    0.01350000
opls_523-8    C    0.25753000    0.73941011    0.50000000    -0.13350000
opls_522-9    C    0.23815004    0.65333009    0.50000000    -0.25700000
opls_523-10    C    0.20486008    0.63791011    0.50000000    0.20300000
opls_145-11    C    0.18956992    0.65664004    0.50000000    -0.15570000
opls_523-12    C    0.20676986    0.69032994    0.50000000    -0.11230000
opls_142-13    C    0.41157995    0.82711008    0.50000000    0.03070000
opls_142-14    C    0.19360008    0.58118010    0.50000000    0.03070000
opls_700-15    C    0.17045991    0.54546001    0.50000000    -0.14840000
opls_700-16    C    0.44696987    0.84064992    0.50000000    -0.11660000
opls_166-17    C    0.46320996    0.82217995    0.50000000    0.24490000
opls_700-18    C    0.49672999    0.83764995    0.50000000    -0.14510000
opls_166-19    C    0.51433992    0.87219996    0.50000000    0.24420000
opls_700-20    C    0.49837996    0.89075013    0.50000000    -0.17670000
opls_166-21    C    0.46475991    0.87475997    0.50000000    0.24410000
opls_166-22    C    0.18397008    0.52468010    0.50000000    0.24420000
opls_700-23    C    0.16439002    0.49034995    0.50000000    -0.12080000
opls_166-24    C    0.13112982    0.47718990    0.50000000    0.24490000
opls_700-25    C    0.11707993    0.49779007    0.50000000    -0.12070000
opls_166-26    C    0.13682012    0.53172013    0.50000000    0.24420000
opls_142-27    C    0.51655993    0.92700996    0.50000000    0.07380000
opls_142-28    C    0.51091998    0.81535011    0.50000000    0.03070000
opls_142-29    C    0.08204994    0.48645992    0.50000000    0.03070000
opls_142-30    C    0.17628996    0.46609990    0.50000000    0.03070000
opls_145-31    C    0.53930992    0.77102998    0.50000000    -0.15750000
opls_523-32    C    0.55621996    0.80511007    0.50000000    0.20250000
opls_522-33    C    0.58929001    0.82069000    0.50000000    -0.23650000
opls_521-34    C    0.60549989    0.80288999    0.50000000    0.19860000
opls_700-35    C    0.58837999    0.76877994    0.50000000    0.01350000
opls_523-36    C    0.55532996    0.75304007    0.50000000    -0.10960000
opls_521-37    C    0.65415993    0.80171991    0.50000000    0.19870000
opls_700-38    C    0.63784002    0.76753013    0.50000000    0.01350000
opls_523-39    C    0.60480997    0.75117998    0.50000000    -0.13360000
opls_522-40    C    0.68725001    0.81837014    0.50000000    -0.26800000
opls_523-41    C    0.70421998    0.80106010    0.50000000    0.20230000
opls_145-42    C    0.68776004    0.76728008    0.50000000    -0.15740000
opls_523-43    C    0.65479986    0.75046001    0.50000000    -0.11060000
opls_145-44    C    0.93068993    0.82921998    0.50000000    -0.15830000
opls_523-45    C    0.89768990    0.81502999    0.50000000    0.20460000
opls_522-46    C    0.87950005    0.78108012    0.50000000    -0.25900000
opls_521-47    C    0.89430991    0.76193005    0.50000000    0.19650000
opls_700-48    C    0.92764997    0.77650008    0.50000000    0.01060000
opls_523-49    C    0.94572993    0.81023009    0.50000000    -0.11130000
opls_521-50    C    0.88998999    0.70968997    0.50000000    0.19680000
opls_700-51    C    0.92320996    0.72318004    0.50000000    0.01060000
opls_523-52    C    0.94201989    0.75683999    0.50000000    -0.16590000
opls_522-53    C    0.87089999    0.67623997    0.50000000    -0.21020000
opls_523-54    C    0.88421009    0.65571011    0.50000000    0.20300000
opls_145-55    C    0.91738003    0.66918013    0.50000000    -0.16660000
opls_523-56    C    0.93676010    0.70276011    0.50000000    -0.11800000
opls_142-57    C    0.86966985    0.94268000    0.50000000    0.03070000
opls_142-58    C    0.85432000    0.82834007    0.50000000    0.08620000
opls_166-59    C    0.80858983    0.83854992    0.50000000    0.24430000
opls_700-60    C    0.84189991    0.85221998    0.50000000    -0.12080000
opls_166-61    C    0.86094986    0.88653998    0.50000000    0.24430000
opls_700-62    C    0.84688005    0.90689009    0.50000000    -0.14540000
opls_166-63    C    0.81321007    0.89267014    0.50000000    0.24420000
opls_700-64    C    0.79393988    0.85867002    0.50000000    -0.14540000
opls_142-65    C    0.75874996    0.84653002    0.50000000    0.03450000
opls_142-66    C    0.84638000    0.48081006    0.50000000    0.07450000
opls_700-67    C    0.83560987    0.50604995    0.50000000    -0.04640000
opls_166-68    C    0.80236998    0.49531993    0.50000000    0.24430000
opls_700-69    C    0.79089007    0.51780000    0.50000000    -0.09960000
opls_166-70    C    0.81181000    0.55116012    0.50000000    0.24660000
opls_700-71    C    0.84509987    0.56282997    0.50000000    -0.14640000
opls_166-72    C    0.85674996    0.54033999    0.50000000    0.26270000
opls_142-73    C    0.75618993    0.50719007    0.50000000    0.07790000
opls_145-74    C    0.68564001    0.48209007    0.50000000    -0.16590000
opls_523-75    C    0.70119002    0.46332994    0.50000000    0.20110000
opls_522-76    C    0.68333985    0.42969995    0.50000000    -0.20770000
opls_521-77    C    0.65044996    0.41457013    0.50000000    0.19680000
opls_700-78    C    0.63479996    0.43328991    0.50000000    0.01060000
opls_523-79    C    0.65256995    0.46708008    0.50000000    -0.11930000
opls_521-80    C    0.60146004    0.36607995    0.50000000    0.19660000
opls_700-81    C    0.58477005    0.38379998    0.50000000    0.01060000
opls_523-82    C    0.60170989    0.41763001    0.50000000    -0.16410000
opls_522-83    C    0.58505990    0.33237989    0.50000000    -0.22880000
opls_523-84    C    0.55179006    0.31579007    0.50000000    0.20490000
opls_145-85    C    0.53544994    0.33352992    0.50000000    -0.15990000
opls_523-86    C    0.55168007    0.36732999    0.50000000    -0.11110000
opls_142-87    C    0.86966998    0.59806008    0.50000000    0.03070000
opls_142-88    C    0.19823004    0.23832991    0.50000000    0.03070000
opls_142-89    C    0.18770003    0.12603007    0.50000000    0.03070000
opls_166-90    C    0.14268998    0.18686006    0.50000000    0.24430000
opls_700-91    C    0.17644988    0.20231991    0.50000000    -0.14540000
opls_166-92    C    0.19179989    0.18315993    0.50000000    0.24420000
opls_700-93    C    0.17397002    0.14873990    0.50000000    -0.12380000
opls_166-94    C    0.14061996    0.13384008    0.50000000    0.24410000
opls_700-95    C    0.12471001    0.15259997    0.50000000    -0.12290000
opls_145-96    C    0.21606010    0.08141010    0.50000000    -0.16430000
opls_523-97    C    0.23287007    0.11548005    0.50000000    0.20490000
opls_522-98    C    0.26588995    0.13118005    0.50000000    -0.20680000
opls_521-99    C    0.28222008    0.11358009    0.50000000    0.19680000
opls_700-100    C    0.26537010    0.07947004    0.50000000    0.01350000
opls_523-101    C    0.23226994    0.06354003    0.50000000    -0.11700000
opls_521-102    C    0.33114002    0.11304011    0.50000000    0.19860000
opls_700-103    C    0.31522002    0.07888005    0.50000000    0.01320000
opls_523-104    C    0.28213002    0.06216001    0.50000000    -0.16140000
opls_522-105    C    0.36415006    0.13015010    0.50000000    -0.25900000
opls_523-106    C    0.38168006    0.11343006    0.50000000    0.20460000
opls_145-107    C    0.36567996    0.07960993    0.50000000    -0.15870000
opls_523-108    C    0.33266992    0.06228999    0.50000000    -0.11120000
opls_142-109    C    0.53478007    0.14852995    0.50000000    0.03070000
opls_700-110    C    0.52057995    0.17086989    0.50000000    -0.12080000
opls_166-111    C    0.48709000    0.15546996    0.50000000    0.25680000
opls_700-112    C    0.47082995    0.17398994    0.50000000    -0.12080000
opls_166-113    C    0.48858002    0.20812994    0.50000000    0.24410000
opls_700-114    C    0.52235996    0.22408000    0.50000000    -0.14840000
opls_166-115    C    0.53807010    0.20530006    0.50000000    0.24410000
opls_142-116    C    0.43536989    0.16002995    0.50000000    0.09190000
opls_142-117    C    0.08921992    0.13605992    0.50000000    0.07470000
opls_523-118    C    0.26822990    0.44900996    0.50000000    -0.11100000
opls_145-119    C    0.25279993    0.46755990    0.50000000    -0.15940000
opls_523-120    C    0.21979999    0.45294010    0.50000000    0.20480000
opls_522-121    C    0.20192000    0.41893998    0.50000000    -0.25700000
opls_523-122    C    0.26544004    0.39621009    0.50000000    -0.13000000
opls_700-123    C    0.25052987    0.41527995    0.50000000    0.01350000
opls_521-124    C    0.21715006    0.40015013    0.50000000    0.19880000
opls_523-125    C    0.26150995    0.34292991    0.50000000    -0.11290000
opls_700-126    C    0.24719004    0.36254000    0.50000000    0.01460000
opls_521-127    C    0.21388992    0.34829999    0.50000000    0.19860000
opls_522-128    C    0.19543992    0.31464995    0.50000000    -0.24240000
opls_523-129    C    0.20959990    0.29479996    0.50000000    0.19210000
opls_145-130    C    0.24294005    0.30934994    0.50000000    -0.15890000
opls_142-131    C    0.54353995    0.26018013    0.50000000    0.03070000
opls_523-132    C    0.88760002    0.46439999    0.50000000    0.20300000
opls_523-133    C    0.57927002    0.13714012    0.50000000    0.20290000
opls_523-134    C    0.88237994    0.99964992    0.50000000    0.20200000
opls_145-135    C    0.86875985    0.01998988    0.50000000    -0.15790000
opls_523-136    C    0.88762003    0.05368003    0.50000000    -0.12140000
opls_700-137    C    0.92062997    0.06741001    0.50000000    0.01060000
opls_521-138    C    0.93450008    0.04704009    0.50000000    0.19700000
opls_522-139    C    0.91557010    0.01357004    0.50000000    -0.23840000
opls_145-140    C    0.61234999    0.15170991    0.50000000    -0.16170000
opls_523-141    C    0.62775989    0.13297998    0.50000000    -0.12310000
opls_700-142    C    0.60998990    0.09917000    0.50000000    0.01060000
opls_521-143    C    0.57669004    0.08444994    0.50000000    0.19710000
opls_522-144    C    0.56157991    0.10319001    0.50000000    -0.20410000
opls_522-145    C    0.92038009    0.47684006    0.50000000    -0.20310000
opls_521-146    C    0.93358004    0.45625004    0.50000000    0.19660000
opls_700-147    C    0.91376990    0.42242001    0.50000000    0.01350000
opls_523-148    C    0.88094994    0.40974993    0.50000000    -0.10960000
opls_145-149    C    0.86789002    0.43054990    0.50000000    -0.16590000
opls_521-150    C    0.97924997    0.44953013    0.50000000    0.19650000
opls_700-151    C    0.96032988    0.41555997    0.50000000    0.01350000
opls_523-152    C    0.92739010    0.40210010    0.50000000    -0.16140000
opls_522-153    C    0.01213002    0.46344011    0.50000000    -0.23940000
opls_523-154    C    0.02665009    0.44372010    0.50000000    0.20450000
opls_145-155    C    0.00768990    0.41010001    0.50000000    -0.15960000
opls_523-156    C    0.97471992    0.39593998    0.50000000    -0.11110000
opls_523-157    C    0.94027999    0.10103009    0.50000000    -0.16290000
opls_700-158    C    0.97321990    0.11374994    0.50000000    0.01060000
opls_521-159    C    0.98589005    0.09233002    0.50000000    0.19700000
opls_523-160    C    0.99374006    0.14716997    0.50000000    -0.12310000
opls_145-161    C    0.02653003    0.15895990    0.50000000    -0.15880000
opls_523-162    C    0.03922001    0.13781008    0.50000000    0.20250000
opls_522-163    C    0.01848993    0.10424992    0.50000000    -0.24750000
opls_523-164    C    0.62445987    0.07950991    0.50000000    -0.16740000
opls_700-165    C    0.60563000    0.04574994    0.50000000    0.01060000
opls_521-166    C    0.57244001    0.03234998    0.50000000    0.19730000
opls_523-167    C    0.61892997    0.02507004    0.50000000    -0.12240000
opls_145-168    C    0.59919006    0.99146011    0.50000000    -0.16430000
opls_523-169    C    0.56623998    0.97812007    0.50000000    0.20260000
opls_522-170    C    0.55307003    0.99904012    0.50000000    -0.20210000
opls_617-171    H    0.35463002    0.82818013    0.50000000    0.13560000
opls_525-172    H    0.34983005    0.73445003    0.50000000    0.12750000
opls_526-173    H    0.29760990    0.80296006    0.50000000    0.11990000
opls_526-174    H    0.24575006    0.75399005    0.50000000    0.12210000
opls_525-175    H    0.25086002    0.63981997    0.50000000    0.09760000
opls_617-176    H    0.16399996    0.64470999    0.50000000    0.12510000
opls_526-177    H    0.19433987    0.70428002    0.50000000    0.12600000
opls_144-178    H    0.40323999    0.84448003    0.50000000    0.11160000
opls_144-179    H    0.21845996    0.58841003    0.50000000    0.10610000
opls_144-180    H    0.50397987    0.94019005    0.50000000    0.12730000
opls_144-181    H    0.49466990    0.78980992    0.50000000    0.10840000
opls_168-182    H    0.42391994    0.77643002    0.50000000    0.32070000
opls_168-183    H    0.55989998    0.87769011    0.50000000    0.37660000
opls_168-184    H    0.45715989    0.91568995    0.50000000    0.32070000
opls_144-185    H    0.07483996    0.50476994    0.50000000    0.10820000
opls_144-186    H    0.15901991    0.44083006    0.50000000    0.10620000
opls_168-187    H    0.22834997    0.52697000    0.50000000    0.32070000
opls_168-188    H    0.13354008    0.57429010    0.50000000    0.32070000
opls_168-189    H    0.08995996    0.43255013    0.50000000    0.32070000
opls_617-190    H    0.51385991    0.75788999    0.50000000    0.12390000
opls_525-191    H    0.60240987    0.84676993    0.50000000    0.12420000
opls_526-192    H    0.54192999    0.72689007    0.50000000    0.12140000
opls_526-193    H    0.59201000    0.72500993    0.50000000    0.12210000
opls_525-194    H    0.69911989    0.84440997    0.50000000    0.11750000
opls_617-195    H    0.70090001    0.75407002    0.50000000    0.12530000
opls_526-196    H    0.64264000    0.72428996    0.50000000    0.11990000
opls_617-197    H    0.94464006    0.85528011    0.50000000    0.12820000
opls_525-198    H    0.85405998    0.76895993    0.50000000    0.09280000
opls_526-199    H    0.97130001    0.82181006    0.50000000    0.12010000
opls_526-200    H    0.96754999    0.76761011    0.50000000    0.12140000
opls_525-201    H    0.84549998    0.66604994    0.50000000    0.12550000
opls_617-202    H    0.92860997    0.65420010    0.50000000    0.12180000
opls_526-203    H    0.96219987    0.71273004    0.50000000    0.11990000
opls_144-204    H    0.89441986    0.94974999    0.50000000    0.10780000
opls_168-205    H    0.76809001    0.79313001    0.50000000    0.37680000
opls_168-206    H    0.90544992    0.88927008    0.50000000    0.32070000
opls_168-207    H    0.80954994    0.93489994    0.50000000    0.32070000
opls_144-208    H    0.83713000    0.80306998    0.50000000    0.10810000
opls_144-209    H    0.75056000    0.86415003    0.50000000    0.12890000
opls_144-210    H    0.82919993    0.45609010    0.50000000    0.12770000
opls_144-211    H    0.74888991    0.52543993    0.50000000    0.10850000
opls_168-212    H    0.78406006    0.44416005    0.50000000    0.37700000
opls_168-213    H    0.81097007    0.59504006    0.50000000    0.32070000
opls_168-214    H    0.89995002    0.54003992    0.50000000    0.37660000
opls_617-215    H    0.69858998    0.50812990    0.50000000    0.11850000
opls_525-216    H    0.69527993    0.41534011    0.50000000    0.12410000
opls_526-217    H    0.64093996    0.48179990    0.50000000    0.12120000
opls_526-218    H    0.58930993    0.43159991    0.50000000    0.12270000
opls_525-219    H    0.59872994    0.31987000    0.50000000    0.09280000
opls_617-220    H    0.50987997    0.32076006    0.50000000    0.12460000
opls_526-221    H    0.53848993    0.38049994    0.50000000    0.12020000
opls_144-222    H    0.89415995    0.60383992    0.50000000    0.10620000
opls_144-223    H    0.22311996    0.24616989    0.50000000    0.11160000
opls_168-224    H    0.13743004    0.22814012    0.50000000    0.37660000
opls_168-225    H    0.23716997    0.18802989    0.50000000    0.32070000
opls_168-226    H    0.10093000    0.08664006    0.50000000    0.32070000
opls_144-227    H    0.17125991    0.10053988    0.50000000    0.10840000
opls_617-228    H    0.19059993    0.06828992    0.50000000    0.12310000
opls_525-229    H    0.27889991    0.15726989    0.50000000    0.12320000
opls_526-230    H    0.21900006    0.03739003    0.50000000    0.12120000
opls_526-231    H    0.26957988    0.03598995    0.50000000    0.11990000
opls_525-232    H    0.37544994    0.15615007    0.50000000    0.10250000
opls_617-233    H    0.37918992    0.06679997    0.50000000    0.12790000
opls_526-234    H    0.32087010    0.03613008    0.50000000    0.12010000
opls_144-235    H    0.51848002    0.12309002    0.50000000    0.11160000
opls_168-236    H    0.44802001    0.10898990    0.50000000    0.32080000
opls_168-237    H    0.48197995    0.24869994    0.50000000    0.32070000
opls_168-238    H    0.58353000    0.21060999    0.50000000    0.32070000
opls_144-239    H    0.42609004    0.17672994    0.50000000    0.10610000
opls_144-240    H    0.07633987    0.11044990    0.50000000    0.12740000
opls_526-241    H    0.29381985    0.46094992    0.50000000    0.12120000
opls_617-242    H    0.26649010    0.49366013    0.50000000    0.12500000
opls_525-243    H    0.17647000    0.40663013    0.50000000    0.10250000
opls_526-244    H    0.29101005    0.40745013    0.50000000    0.12250000
opls_526-245    H    0.28702993    0.35355000    0.50000000    0.12630000
opls_525-246    H    0.16998003    0.30383006    0.50000000    0.12550000
opls_617-247    H    0.25523999    0.29545011    0.50000000    0.10870000
opls_144-248    H    0.56864997    0.26882005    0.50000000    0.10810000
opls_617-249    H    0.84327998    0.00940000    0.50000000    0.12770000
opls_526-250    H    0.87651003    0.06887001    0.50000000    0.12310000
opls_525-251    H    0.92741003    0.99922011    0.50000000    0.10400000
opls_617-252    H    0.62605000    0.17780990    0.50000000    0.12500000
opls_526-253    H    0.65333994    0.14481001    0.50000000    0.12010000
opls_525-254    H    0.53616006    0.09051994    0.50000000    0.09760000
opls_525-255    H    0.93565991    0.50269990    0.50000000    0.12840000
opls_526-256    H    0.86544999    0.38385990    0.50000000    0.12210000
opls_617-257    H    0.84251005    0.41965995    0.50000000    0.13560000
opls_526-258    H    0.91252998    0.37609989    0.50000000    0.12600000
opls_525-259    H    0.02562011    0.48941011    0.50000000    0.13560000
opls_617-260    H    0.01885005    0.39496995    0.50000000    0.12460000
opls_526-261    H    0.96058998    0.36986004    0.50000000    0.12270000
opls_526-262    H    0.93009008    0.11706012    0.50000000    0.12010000
opls_526-263    H    0.98449996    0.16402000    0.50000000    0.12270000
opls_617-264    H    0.04250006    0.18474000    0.50000000    0.12480000
opls_525-265    H    0.02679008    0.08679009    0.50000000    0.11750000
opls_526-266    H    0.64998004    0.09030998    0.50000000    0.12270000
opls_526-267    H    0.64434000    0.03480997    0.50000000    0.12270000
opls_617-268    H    0.60931996    0.97536992    0.50000000    0.12120000
opls_525-269    H    0.52799999    0.99042001    0.50000000    0.12420000
opls_520-270    N    0.28777009    0.70199012    0.50000000    -0.28260000
opls_750-271    N    0.39083000    0.79656003    0.50000000    -0.31570000
opls_750-272    N    0.18520000    0.60346012    0.50000000    -0.33080000
opls_750-273    N    0.54728008    0.94346013    0.50000000    -0.31710000
opls_750-274    N    0.20598986    0.47392997    0.50000000    -0.33060000
opls_750-275    N    0.54106989    0.82494001    0.50000000    -0.31940000
opls_750-276    N    0.06033985    0.45633992    0.50000000    -0.31940000
opls_520-277    N    0.63768006    0.81837014    0.50000000    -0.28260000
opls_750-278    N    0.73806004    0.81610005    0.50000000    -0.33080000
opls_750-279    N    0.88410001    0.83626992    0.50000000    -0.31910000
opls_520-280    N    0.87654006    0.72920003    0.50000000    -0.27940000
opls_750-281    N    0.86289998    0.62155005    0.50000000    -0.33050000
opls_750-282    N    0.86156988    0.96524995    0.50000000    -0.32120000
opls_750-283    N    0.87567993    0.48711997    0.50000000    -0.31930000
opls_750-284    N    0.73489003    0.47692003    0.50000000    -0.33080000
opls_520-285    N    0.63355996    0.38179009    0.50000000    -0.27940000
opls_750-286    N    0.21777997    0.13531990    0.50000000    -0.32630000
opls_520-287    N    0.31434995    0.12933011    0.50000000    -0.28110000
opls_750-288    N    0.56487996    0.15772000    0.50000000    -0.31440000
opls_750-289    N    0.41562007    0.12926995    0.50000000    -0.33050000
opls_750-290    N    0.07310012    0.15159008    0.50000000    -0.32120000
opls_750-291    N    0.18926985    0.26027991    0.50000000    -0.31560000
opls_520-292    N    0.19984003    0.36732009    0.50000000    -0.28260000
opls_750-293    N    0.53338988    0.28114995    0.50000000    -0.32630000
opls_520-294    N    0.96549996    0.46880004    0.50000000    -0.28080000
opls_520-295    N    0.96641001    0.05990997    0.50000000    -0.28020000
opls_520-296    N    0.55903004    0.05181994    0.50000000    -0.27240000
opls_167-297    O    0.44762007    0.78823008    0.50000000    -0.38500000
opls_167-298    O    0.54746993    0.88956000    0.50000000    -0.41960000
opls_167-299    O    0.44719006    0.89153002    0.50000000    -0.50200000
opls_167-300    O    0.21719990    0.54018005    0.50000000    -0.38500000
opls_167-301    O    0.12101999    0.55014999    0.50000000    -0.38500000
opls_167-302    O    0.11360007    0.44326009    0.50000000    -0.38500000
opls_167-303    O    0.79170989    0.80457999    0.50000000    -0.38500000
opls_167-304    O    0.89419997    0.90241007    0.50000000    -0.38480000
opls_167-305    O    0.79704000    0.91074002    0.50000000    -0.38500000
opls_167-306    O    0.77929989    0.46250004    0.50000000    -0.38970000
opls_167-307    O    0.79745000    0.57097992    0.50000000    -0.38500000
opls_167-308    O    0.88986988    0.55422001    0.50000000    -0.38970000
opls_167-309    O    0.12568004    0.20399010    0.50000000    -0.41950000
opls_167-310    O    0.22503987    0.20026992    0.50000000    -0.38500000
opls_167-311    O    0.12456007    0.09975999    0.50000000    -0.43620000
opls_167-312    O    0.47164995    0.12145993    0.50000000    -0.38500000
opls_167-313    O    0.47077009    0.22451006    0.50000000    -0.38500000
opls_167-314    O    0.57127005    0.22272993    0.50000000    -0.38500000
