#======================================================================
# Crystal Data Generated By AuToFF
#----------------------------------------------------------------------

data_AuToFF_phase_1

_cell_length_a                         22.2250
_cell_length_b                         22.2250
_cell_length_c                         3.2675
_cell_angle_alpha                      90.00
_cell_angle_beta                       90.00
_cell_angle_gamma                      120.00
_symmetry_space_group_name_H-M_alt     'P 1'
_symmetry_space_group_IT_number        1

loop_
_space_group_symop_operation_xyz
   'x, y, z'

loop_
   _atom_site_label
   _atom_site_type_symbol
   _atom_site_fract_x
   _atom_site_fract_y
   _atom_site_fract_z
   _atom_site_charge
opls_167-0    O    0.07690033    0.48690032    0.50000000    -0.31630000
opls_167-1    O    0.51309984    0.58999990    0.50000000    -0.31630000
opls_167-2    O    0.41000010    0.92310030    0.50000000    -0.31630000
opls_167-3    O    0.51310021    0.92310030    0.50000000    -0.31630000
opls_167-4    O    0.40999999    0.48690032    0.50000000    -0.31630000
opls_167-5    O    0.07690006    0.58999990    0.50000000    -0.31630000
opls_145-6    C    0.91930009    0.40570030    0.50000000    -0.06950000
opls_145-7    C    0.59430012    0.51360001    0.50000000    -0.06950000
opls_145-8    C    0.48640005    0.08070021    0.50000000    -0.06950000
opls_145-9    C    0.59430016    0.08070021    0.50000000    -0.06950000
opls_145-10    C    0.48640021    0.40570030    0.50000000    -0.06950000
opls_145-11    C    0.91929989    0.51360001    0.50000000    -0.06950000
opls_523-12    C    0.84779983    0.36979988    0.50000000    -0.16400000
opls_523-13    C    0.63019995    0.47799990    0.50000000    -0.16400000
opls_523-14    C    0.52200022    0.15220022    0.50000000    -0.16400000
opls_523-15    C    0.63020000    0.15220022    0.50000000    -0.16400000
opls_523-16    C    0.52200005    0.36979988    0.50000000    -0.16400000
opls_523-17    C    0.84779995    0.47799990    0.50000000    -0.16400000
opls_700-18    C    0.26849989    0.60240001    0.50000000    0.03470000
opls_700-19    C    0.39759984    0.66610001    0.50000000    0.03470000
opls_700-20    C    0.33389982    0.73149998    0.50000000    0.03470000
opls_700-21    C    0.39760016    0.73149998    0.50000000    0.03470000
opls_700-22    C    0.33390012    0.60240001    0.50000000    0.03470000
opls_700-23    C    0.26850017    0.66610001    0.50000000    0.03470000
opls_166-24    C    0.14500024    0.54130036    0.50000000    0.18240000
opls_166-25    C    0.45869991    0.60369993    0.50000000    0.18240000
opls_166-26    C    0.39630012    0.85500023    0.50000000    0.18240000
opls_166-27    C    0.45870012    0.85500023    0.50000000    0.18240000
opls_166-28    C    0.39630012    0.54130036    0.50000000    0.18240000
opls_166-29    C    0.14500002    0.60369993    0.50000000    0.18240000
opls_145-30    C    0.20489986    0.53910007    0.50000000    -0.18700000
opls_145-31    C    0.46090011    0.66580023    0.50000000    -0.18700000
opls_145-32    C    0.33420028    0.79510022    0.50000000    -0.18700000
opls_145-33    C    0.46089994    0.79510022    0.50000000    -0.18700000
opls_145-34    C    0.33420020    0.53910007    0.50000000    -0.18700000
opls_145-35    C    0.20490011    0.66580023    0.50000000    -0.18700000
opls_531-36    C    0.63259992    0.26519984    0.50000000    0.37450000
opls_531-37    C    0.73480015    0.36740008    0.50000000    0.37450000
opls_531-38    C    0.63259993    0.36740008    0.50000000    0.37450000
opls_145-39    C    0.52184995    0.04369991    0.50000000    -0.24320000
opls_145-40    C    0.95630022    0.47815005    0.50000000    -0.24330000
opls_145-41    C    0.52184983    0.47815005    0.50000000    -0.24330000
opls_700-42    C    0.59435010    0.18870019    0.50000000    0.01110000
opls_700-43    C    0.81130009    0.40564990    0.50000000    0.01110000
opls_700-44    C    0.59434981    0.40564990    0.50000000    0.01120000
opls_146-45    H    0.20210023    0.48930012    0.50000000    0.09560000
opls_146-46    H    0.51070027    0.71280032    0.50000000    0.09560000
opls_146-47    H    0.28720021    0.79790008    0.50000000    0.09560000
opls_146-48    H    0.51069987    0.79790008    0.50000000    0.09560000
opls_146-49    H    0.28719989    0.48930012    0.50000000    0.09560000
opls_146-50    H    0.20210005    0.71280032    0.50000000    0.09560000
opls_146-51    H    0.94719989    0.37730011    0.50000000    0.12330000
opls_146-52    H    0.62269986    0.56990005    0.50000000    0.12330000
opls_146-53    H    0.43009980    0.05279983    0.50000000    0.12330000
opls_146-54    H    0.62270003    0.05279983    0.50000000    0.12330000
opls_146-55    H    0.43010023    0.37730011    0.50000000    0.12330000
opls_146-56    H    0.94720020    0.56990005    0.50000000    0.12330000
opls_526-57    H    0.81889988    0.31369987    0.50000000    0.12480000
opls_526-58    H    0.68629985    0.50519992    0.50000000    0.12470000
opls_526-59    H    0.49480027    0.18110021    0.50000000    0.12470000
opls_526-60    H    0.68629994    0.18110021    0.50000000    0.12470000
opls_526-61    H    0.49479999    0.31369987    0.50000000    0.12470000
opls_526-62    H    0.81890007    0.50519992    0.50000000    0.12470000
opls_520-63    N    0.59590019    0.29795022    0.50000000    -0.38590000
opls_520-64    N    0.70205002    0.29795022    0.50000000    -0.38590000
opls_520-65    N    0.70205004    0.40410008    0.50000000    -0.38590000
MOF2_B_2-66    B    0.48220020    0.96440041    0.50000000    0.59570000
MOF2_B_2-67    B    0.03560014    0.51780006    0.50000000    0.59570000
MOF2_B_2-68    B    0.48219992    0.51780006    0.50000000    0.59570000
