#======================================================================
# Crystal Data Generated By AuToFF
#----------------------------------------------------------------------

data_AuToFF_phase_1

_cell_length_a                         20.8677
_cell_length_b                         20.8677
_cell_length_c                         4.1175
_cell_angle_alpha                      90.00
_cell_angle_beta                       90.00
_cell_angle_gamma                      120.00
_symmetry_space_group_name_H-M_alt     'P 1'
_symmetry_space_group_IT_number        1

loop_
_space_group_symop_operation_xyz
   'x, y, z'

loop_
   _atom_site_label
   _atom_site_type_symbol
   _atom_site_fract_x
   _atom_site_fract_y
   _atom_site_fract_z
   _atom_site_charge
opls_145-0    C    0.95022974    0.14633997    0.29258045    -0.16650000
opls_145-1    C    0.85365991    0.80389011    0.29258045    -0.16650000
opls_145-2    C    0.19610987    0.04976992    0.29258045    -0.16650000
opls_145-3    C    0.98795999    0.10778023    0.27472010    -0.16650000
opls_145-4    C    0.89221991    0.88018012    0.27472010    -0.16650000
opls_145-5    C    0.11981990    0.01204020    0.27472010    -0.16650000
opls_916-6    C    0.96045019    0.03919995    0.43122040    0.17470000
opls_916-7    C    0.96079982    0.92124983    0.43122040    0.17470000
opls_916-8    C    0.07874999    0.03955022    0.43122040    0.17470000
opls_145-9    C    0.89299004    0.01025013    0.59847966    -0.16500000
opls_145-10    C    0.98974998    0.88273989    0.59847966    -0.16500000
opls_145-11    C    0.11725998    0.10700998    0.59847966    -0.16500000
opls_145-12    C    0.85496029    0.04857027    0.61395993    -0.16240000
opls_145-13    C    0.95142989    0.80639012    0.61395993    -0.16240000
opls_145-14    C    0.19361009    0.14504016    0.61395993    -0.16240000
opls_145-15    C    0.88366017    0.11823012    0.46594050    0.20150000
opls_145-16    C    0.88176999    0.76542998    0.46594050    0.20150000
opls_145-17    C    0.23456984    0.11633990    0.46594050    0.20150000
opls_145-18    C    0.73631003    0.53303017    0.49259016    -0.11600000
opls_145-19    C    0.46697021    0.20328011    0.49259016    -0.11600000
opls_145-20    C    0.79671976    0.26368972    0.49259016    -0.11600000
opls_145-21    C    0.69153013    0.45707992    0.48958106    -0.16120000
opls_145-22    C    0.54292018    0.23444994    0.48958106    -0.16120000
opls_145-23    C    0.76555016    0.30847014    0.48958106    -0.16120000
opls_916-24    C    0.71278985    0.41167975    0.65388950    0.17490000
opls_916-25    C    0.58832012    0.30111012    0.65388950    0.17490000
opls_916-26    C    0.69889003    0.28721013    0.65388950    0.17460000
opls_145-27    C    0.78044023    0.44534018    0.82122890    -0.16120000
opls_145-28    C    0.55466012    0.33509979    0.82122890    -0.16120000
opls_145-29    C    0.66490013    0.21956003    0.82122890    -0.16120000
opls_145-30    C    0.82466018    0.52142988    0.82572920    -0.11840000
opls_145-31    C    0.47857004    0.30322998    0.82572920    -0.11830000
opls_145-32    C    0.69677026    0.17534014    0.82572920    -0.11830000
opls_700-33    C    0.80371980    0.56684001    0.66104918    0.05760000
opls_700-34    C    0.43315999    0.23688023    0.66104918    0.05760000
opls_700-35    C    0.76311973    0.19627976    0.66104918    0.05760000
opls_142-36    C    0.79661993    0.14907016    0.66683910    0.02850000
opls_142-37    C    0.85092995    0.64755013    0.66683910    0.02850000
opls_142-38    C    0.35244964    0.20337971    0.66683910    0.02850000
opls_750-39    N    0.31233993    0.14990018    0.46793928    -0.27810000
opls_750-40    N    0.85010016    0.16244005    0.46793928    -0.27820000
opls_750-41    N    0.83755991    0.68765978    0.46793928    -0.27810000
opls_239-42    N    0.00000000    0.00000000    0.42000000    -0.12700000
opls_239-43    N    0.66666989    0.33333020    0.65133940    -0.13160000
opls_146-44    H    0.97236993    0.19966014    0.16913904    0.11370000
opls_146-45    H    0.80033965    0.77270977    0.16913904    0.11380000
opls_146-46    H    0.22728994    0.02763010    0.16913904    0.11370000
opls_146-47    H    0.03935989    0.13119994    0.13557013    0.11070000
opls_146-48    H    0.86879985    0.90815993    0.13557013    0.11070000
opls_146-49    H    0.09184026    0.96064013    0.13557013    0.11070000
opls_146-50    H    0.86990015    0.95695984    0.72237037    0.11080000
opls_146-51    H    0.04304001    0.91293971    0.72237037    0.11080000
opls_146-52    H    0.08706004    0.13009989    0.72237037    0.11080000
opls_146-53    H    0.80269009    0.02359014    0.74764056    0.10940000
opls_146-54    H    0.97640996    0.77909978    0.74764056    0.10940000
opls_146-55    H    0.22089995    0.19731009    0.74764056    0.10940000
opls_146-56    H    0.71930004    0.56749019    0.35972070    0.11170000
opls_146-57    H    0.43251007    0.15180976    0.35972070    0.11170000
opls_146-58    H    0.84818989    0.28070005    0.35972070    0.11170000
opls_146-59    H    0.63948970    0.43263985    0.35497996    0.10940000
opls_146-60    H    0.56736004    0.20684973    0.35497996    0.10950000
opls_146-61    H    0.79314998    0.36050987    0.35497996    0.10940000
opls_146-62    H    0.79844985    0.41175999    0.95347905    0.10800000
opls_146-63    H    0.58824009    0.38669021    0.95347905    0.10800000
opls_146-64    H    0.61331006    0.20154980    0.95347905    0.10800000
opls_146-65    H    0.87659022    0.54625010    0.96266910    0.12460000
opls_146-66    H    0.45374992    0.33033993    0.96266910    0.12460000
opls_146-67    H    0.66965986    0.12340997    0.96266910    0.12460000
opls_144-68    H    0.77379993    0.10306021    0.84866060    0.04600000
opls_144-69    H    0.89693989    0.67074020    0.84866060    0.04600000
opls_144-70    H    0.32925998    0.22620015    0.84866060    0.04600000
