#======================================================================
# Crystal Data Generated By AuToFF
#----------------------------------------------------------------------

data_AuToFF_phase_1

_cell_length_a                         21.6700
_cell_length_b                         21.6700
_cell_length_c                         3.5900
_cell_angle_alpha                      90.00
_cell_angle_beta                       90.00
_cell_angle_gamma                      120.00
_symmetry_space_group_name_H-M_alt     'P 1'
_symmetry_space_group_IT_number        1

loop_
_space_group_symop_operation_xyz
   'x, y, z'

loop_
   _atom_site_label
   _atom_site_type_symbol
   _atom_site_fract_x
   _atom_site_fract_y
   _atom_site_fract_z
   _atom_site_charge
opls_280-0    C    0.25724002    0.63964017    0.00257939    0.29640000
opls_145-1    C    0.28339021    0.58974027    0.03594986    -0.14180000
opls_142-2    C    0.23894005    0.52410990    0.15357103    0.04380000
opls_916-3    C    0.22401996    0.40305977    0.10450975    0.19630000
opls_145-4    C    0.15743010    0.37594003    0.92852925    -0.16390000
opls_145-5    C    0.12041005    0.30564983    0.81479109    -0.17060000
opls_916-6    C    0.14920995    0.26144989    0.87057103    0.21690000
opls_145-7    C    0.21634010    0.28840978    0.03813928    -0.15850000
opls_145-8    C    0.25347984    0.35902982    0.15384958    -0.17840000
opls_142-9    C    0.11850972    0.13431986    0.90428134    0.09770000
opls_145-10    C    0.06266024    0.07208006    0.00730919    -0.18340000
opls_280-11    C    0.07199983    0.00988982    0.04683008    0.31360000
opls_280-12    C    0.36036030    0.61760015    0.00257939    0.29640000
opls_145-13    C    0.41026016    0.69365000    0.03594986    -0.14180000
opls_142-14    C    0.47588984    0.71482999    0.15357103    0.04380000
opls_916-15    C    0.59694015    0.82096013    0.10450975    0.19630000
opls_145-16    C    0.62406010    0.78148984    0.92852925    -0.16390000
opls_145-17    C    0.69434991    0.81475981    0.81479109    -0.17060000
opls_916-18    C    0.73855011    0.88776012    0.87057103    0.21690000
opls_145-19    C    0.71158986    0.92793006    0.03813928    -0.15850000
opls_145-20    C    0.64096988    0.89445014    0.15384958    -0.17840000
opls_142-21    C    0.86568021    0.98419014    0.90428134    0.09770000
opls_145-22    C    0.92791998    0.99058016    0.00730919    -0.18340000
opls_280-23    C    0.99010981    0.06210978    0.04683008    0.31360000
opls_280-24    C    0.38239995    0.74276021    0.00257939    0.29640000
opls_145-25    C    0.30635036    0.71661026    0.03594986    -0.14180000
opls_142-26    C    0.28517011    0.76106011    0.15357103    0.04380000
opls_916-27    C    0.17903989    0.77598010    0.10450975    0.19630000
opls_145-28    C    0.21851027    0.84257014    0.92852925    -0.16390000
opls_145-29    C    0.18523977    0.87958983    0.81479109    -0.17060000
opls_916-30    C    0.11223994    0.85078999    0.87057103    0.21690000
opls_145-31    C    0.07207004    0.78366016    0.03813928    -0.15850000
opls_145-32    C    0.10554982    0.74652005    0.15384958    -0.17840000
opls_142-33    C    0.01581006    0.88149000    0.90428134    0.09780000
opls_145-34    C    0.00941977    0.93733978    0.00730919    -0.18340000
opls_280-35    C    0.93789010    0.92799986    0.04683008    0.31360000
opls_281-36    O    0.19454978    0.61663994    0.93176880    -0.36430000
opls_281-37    O    0.13127966    0.01858977    0.10671866    -0.39890000
opls_281-38    O    0.38336006    0.57790978    0.93176880    -0.36430000
opls_281-39    O    0.98141014    0.11269014    0.10671866    -0.39870000
opls_281-40    O    0.42209016    0.80545027    0.93176880    -0.36430000
opls_281-41    O    0.88731020    0.86872008    0.10671866    -0.39880000
opls_238-42    N    0.26241971    0.47461977    0.23384123    -0.29580000
opls_238-43    N    0.10855997    0.18943004    0.75447075    -0.28010000
opls_238-44    N    0.52537989    0.78779993    0.23384123    -0.29590000
opls_238-45    N    0.81057004    0.91912993    0.75447075    -0.28010000
opls_238-46    N    0.21219967    0.73757978    0.23384123    -0.29580000
opls_238-47    N    0.08086999    0.89144003    0.75447075    -0.28010000
opls_144-48    H    0.18335991    0.50741017    0.19776045    0.09880000
opls_910-49    H    0.31043994    0.49192003    0.37584123    0.26220000
opls_146-50    H    0.13346975    0.40828976    0.87401114    0.12230000
opls_146-51    H    0.06904015    0.28553022    0.68084958    0.11340000
opls_146-52    H    0.24004015    0.25544993    0.08274095    0.11790000
opls_146-53    H    0.30480012    0.37927997    0.28744011    0.11500000
opls_910-54    H    0.06359992    0.17547026    0.59305014    0.25450000
opls_144-55    H    0.17141986    0.14099017    0.89567131    0.08680000
opls_144-56    H    0.49259018    0.67595010    0.19776045    0.09880000
opls_910-57    H    0.50808012    0.81852018    0.37584123    0.26220000
opls_146-58    H    0.59171008    0.72518020    0.87401114    0.12230000
opls_146-59    H    0.71446976    0.78350990    0.68084958    0.11340000
opls_146-60    H    0.74455008    0.98458978    0.08274095    0.11790000
opls_146-61    H    0.62071983    0.92551995    0.28744011    0.11500000
opls_910-62    H    0.82453012    0.88812992    0.59305014    0.25450000
opls_144-63    H    0.85901003    0.03042985    0.89567131    0.08680000
opls_144-64    H    0.32405017    0.81664026    0.19776045    0.09880000
opls_910-65    H    0.18147994    0.68955979    0.37584123    0.26220000
opls_146-66    H    0.27482017    0.86653004    0.87401114    0.12230000
opls_146-67    H    0.21649009    0.93095988    0.68084958    0.11340000
opls_146-68    H    0.01540997    0.75995976    0.08274095    0.11790000
opls_146-69    H    0.07448006    0.69520008    0.28744011    0.11500000
opls_910-70    H    0.11186996    0.93639982    0.59305014    0.25450000
opls_144-71    H    0.96957010    0.82857998    0.89567131    0.08680000
