#======================================================================
# Crystal Data Generated By AuToFF
#----------------------------------------------------------------------

data_AuToFF_phase_1

_cell_length_a                         25.6211
_cell_length_b                         25.6211
_cell_length_c                         3.5291
_cell_angle_alpha                      90.00
_cell_angle_beta                       90.00
_cell_angle_gamma                      120.00
_symmetry_space_group_name_H-M_alt     'P 1'
_symmetry_space_group_IT_number        1

loop_
_space_group_symop_operation_xyz
   'x, y, z'

loop_
   _atom_site_label
   _atom_site_type_symbol
   _atom_site_fract_x
   _atom_site_fract_y
   _atom_site_fract_z
   _atom_site_charge
opls_531-0    C    0.63584999    0.36292010    0.00000000    0.36290000
opls_700-1    C    0.60219992    0.39523006    0.00000000    0.04300000
opls_523-2    C    0.63216011    0.45766009    0.00000000    -0.18520000
opls_145-3    C    0.60031985    0.48790996    0.00000000    -0.19100000
opls_145-4    C    0.53825989    0.45688987    0.00000000    0.22390000
opls_145-5    C    0.50799023    0.39437015    0.00000000    -0.19110000
opls_523-6    C    0.53973008    0.36397020    0.00000000    -0.18470000
opls_142-7    C    0.45152984    0.47066997    0.00000000    0.12050000
opls_700-8    C    0.42783002    0.51177005    0.00000000    0.06260000
opls_145-9    C    0.46582015    0.57357994    0.00000000    -0.18380000
opls_523-10    C    0.44257013    0.61181007    0.00000000    -0.18520000
opls_700-11    C    0.38080012    0.58899016    0.00000000    0.05310000
opls_523-12    C    0.34291032    0.52702028    0.00000000    -0.18490000
opls_145-13    C    0.36623012    0.48885009    0.00000000    -0.18380000
opls_531-14    C    0.35602984    0.62953005    0.00000000    0.36290000
opls_531-15    C    0.63708006    0.27292988    0.00000000    0.36290000
opls_700-16    C    0.60476992    0.20697009    0.00000000    0.04300000
opls_523-17    C    0.54234021    0.17450015    0.00000000    -0.18520000
opls_145-18    C    0.51209015    0.11240993    0.00000000    -0.19100000
opls_145-19    C    0.54310996    0.08137001    0.00000000    0.22390000
opls_145-20    C    0.60562993    0.11362002    0.00000000    -0.19110000
opls_523-21    C    0.63603006    0.17575981    0.00000000    -0.18470000
opls_142-22    C    0.52933016    0.98086037    0.00000000    0.12050000
opls_700-23    C    0.48823021    0.91606020    0.00000000    0.06260000
opls_145-24    C    0.42641994    0.89224022    0.00000000    -0.18380000
opls_523-25    C    0.38819003    0.83076023    0.00000000    -0.18520000
opls_700-26    C    0.41101008    0.79180991    0.00000000    0.05310000
opls_523-27    C    0.47298003    0.81588993    0.00000000    -0.18490000
opls_145-28    C    0.51114995    0.87738028    0.00000000    -0.18380000
opls_531-29    C    0.37046984    0.72650001    0.00000000    0.36290000
opls_531-30    C    0.72706996    0.36415002    0.00000000    0.36290000
opls_700-31    C    0.79302976    0.39779985    0.00000000    0.04300000
opls_523-32    C    0.82550029    0.36784022    0.00000000    -0.18520000
opls_145-33    C    0.88758999    0.39968010    0.00000000    -0.19100000
opls_145-34    C    0.91863015    0.46174013    0.00000000    0.22390000
opls_145-35    C    0.88638007    0.49201028    0.00000000    -0.19110000
opls_523-36    C    0.82423986    0.46027000    0.00000000    -0.18470000
opls_142-37    C    0.01914023    0.54847011    0.00000000    0.12050000
opls_700-38    C    0.08393999    0.57217020    0.00000000    0.06260000
opls_145-39    C    0.10776014    0.53418029    0.00000000    -0.18380000
opls_523-40    C    0.16924007    0.55743015    0.00000000    -0.18520000
opls_700-41    C    0.20818980    0.61919993    0.00000000    0.05310000
opls_523-42    C    0.18411026    0.65709024    0.00000000    -0.18490000
opls_145-43    C    0.12262015    0.63377008    0.00000000    -0.18380000
opls_531-44    C    0.27349993    0.64396994    0.00000000    0.36290000
opls_750-45    N    0.50849012    0.49092008    0.00000000    -0.28930000
opls_520-46    N    0.60670999    0.30275025    0.00000000    -0.38350000
opls_750-47    N    0.50908002    0.01756990    0.00000000    -0.28940000
opls_520-48    N    0.69725005    0.30395989    0.00000000    -0.38340000
opls_750-49    N    0.98242986    0.49151002    0.00000000    -0.28940000
opls_520-50    N    0.69603996    0.39328986    0.00000000    -0.38350000
opls_520-51    N    0.29647025    0.60728025    0.00000000    -0.38350000
opls_520-52    N    0.39272027    0.68919018    0.00000000    -0.38340000
opls_520-53    N    0.31081010    0.70353002    0.00000000    -0.38350000
opls_526-54    H    0.68021980    0.48302996    0.00000000    0.11420000
opls_146-55    H    0.62388027    0.53594021    0.00000000    0.25090000
opls_146-56    H    0.46020003    0.36849010    0.00000000    0.25720000
opls_526-57    H    0.51543012    0.31588001    0.00000000    0.11450000
opls_144-58    H    0.42018991    0.42361005    0.00000000    0.12350000
opls_146-59    H    0.51350980    0.59214990    0.00000000    0.11420000
opls_526-60    H    0.47286018    0.65929003    0.00000000    0.11420000
opls_526-61    H    0.29517999    0.50814025    0.00000000    0.11420000
opls_146-62    H    0.33612012    0.44133994    0.00000000    0.11420000
opls_526-63    H    0.51696999    0.19718981    0.00000000    0.11420000
opls_146-64    H    0.46406012    0.08794007    0.00000000    0.25090000
opls_146-65    H    0.63151020    0.09171004    0.00000000    0.25720000
opls_526-66    H    0.68411995    0.19955004    0.00000000    0.11450000
opls_144-67    H    0.57639019    0.99658021    0.00000000    0.12350000
opls_146-68    H    0.40785022    0.92136023    0.00000000    0.11420000
opls_526-69    H    0.34071029    0.81357026    0.00000000    0.11420000
opls_526-70    H    0.49186020    0.78704033    0.00000000    0.11420000
opls_146-71    H    0.55866014    0.89478027    0.00000000    0.11420000
opls_526-72    H    0.80281021    0.31978023    0.00000000    0.11420000
opls_146-73    H    0.91206023    0.37612017    0.00000000    0.25090000
opls_146-74    H    0.90828977    0.53979986    0.00000000    0.25720000
opls_526-75    H    0.80044992    0.48456995    0.00000000    0.11450000
opls_144-76    H    0.00342013    0.57981019    0.00000000    0.12350000
opls_146-77    H    0.07863998    0.48648986    0.00000000    0.11420000
opls_526-78    H    0.18643014    0.52714016    0.00000000    0.11420000
opls_526-79    H    0.21296026    0.70482033    0.00000000    0.11420000
opls_146-80    H    0.10521996    0.66388024    0.00000000    0.11420000
