#======================================================================
# Crystal Data Generated By AuToFF
#----------------------------------------------------------------------

data_AuToFF_phase_1

_cell_length_a                         34.4900
_cell_length_b                         34.1900
_cell_length_c                         10.8900
_cell_angle_alpha                      90.33
_cell_angle_beta                       89.02
_cell_angle_gamma                      60.14
_symmetry_space_group_name_H-M_alt     'P 1'
_symmetry_space_group_IT_number        1

loop_
_space_group_symop_operation_xyz
   'x, y, z'

loop_
   _atom_site_label
   _atom_site_type_symbol
   _atom_site_fract_x
   _atom_site_fract_y
   _atom_site_fract_z
   _atom_site_charge
opls_238-0    N    0.65751978    0.66105019    0.05009034    -0.35720000
opls_238-1    N    0.07514009    0.46565989    0.71934972    -0.36000000
opls_238-2    N    0.28031004    0.43474995    0.72647018    -0.35890000
opls_238-3    N    0.25645986    0.26860012    0.65347991    -0.36020000
opls_238-4    N    0.46739988    0.67362003    0.75547009    -0.35910000
opls_238-5    N    0.46315990    0.84854983    0.60099036    -0.36020000
opls_238-6    N    0.65751987    0.66105002    0.55008988    -0.35720000
opls_238-7    N    0.07514001    0.46566007    0.21935017    -0.35990000
opls_238-8    N    0.28030996    0.43475011    0.22646972    -0.35910000
opls_238-9    N    0.25645994    0.26859995    0.15348037    -0.36010000
opls_238-10    N    0.46739997    0.67361985    0.25546963    -0.35910000
opls_238-11    N    0.46316012    0.84855000    0.10098990    -0.36010000
opls_910-12    H    0.66485987    0.66059013    0.95635960    0.25400000
opls_702-13    H    0.91519987    0.58013009    0.13757046    0.08960000
opls_702-14    H    0.90770004    0.53057016    0.98836036    0.11500000
opls_140-15    H    0.82833983    0.53628016    0.31174996    0.10820000
opls_140-16    H    0.88752992    0.49963015    0.30822004    0.10090000
opls_702-17    H    0.83021985    0.63267006    0.14425003    0.08950000
opls_702-18    H    0.82239991    0.58374992    0.99348026    0.11450000
opls_140-19    H    0.86929993    0.58471990    0.35091986    0.11400000
opls_140-20    H    0.85483995    0.49817990    0.09075010    0.04930000
opls_146-21    H    0.67473993    0.70520995    0.24096968    0.11130000
opls_146-22    H    0.73559986    0.58756008    0.99908973    0.11460000
opls_146-23    H    0.99457994    0.53330016    0.30126032    0.11470000
opls_146-24    H    0.05669998    0.41829007    0.05375988    0.10920000
opls_702-25    H    0.96260987    0.40736013    0.99934049    0.16230000
opls_702-26    H    0.95830986    0.44953980    0.89324998    0.12200000
opls_702-27    H    0.01211980    0.40140995    0.92219019    0.10720000
opls_702-28    H    0.76360004    0.67240999    0.43926984    0.16250000
opls_702-29    H    0.77722012    0.69750989    0.31206961    0.10720000
opls_702-30    H    0.72011996    0.72202992    0.36828013    0.15970000
opls_702-31    H    0.42111988    0.02625006    0.07678014    0.04740000
opls_702-32    H    0.35727986    0.01143002    0.07795035    0.04830000
opls_140-33    H    0.34563000    0.08368990    0.41722047    0.09630000
opls_140-34    H    0.38556994    0.02458981    0.40448960    0.09670000
opls_702-35    H    0.36369010    0.10856986    0.08739011    0.04740000
opls_702-36    H    0.30029985    0.09397001    0.09854018    0.08960000
opls_140-37    H    0.41721983    0.07146000    0.29047032    0.08960000
opls_140-38    H    0.31030981    0.04139015    0.30010021    0.08960000
opls_146-39    H    0.20053005    0.24049005    0.21262009    0.10870000
opls_146-40    H    0.21891988    0.16171014    0.24028996    0.11300000
opls_146-41    H    0.50606999    0.95383990    0.17664025    0.11280000
opls_146-42    H    0.52314993    0.87614987    0.13432988    0.11410000
opls_702-43    H    0.34901007    0.92594991    0.23583967    0.16200000
opls_702-44    H    0.34865008    0.94484000    0.08125982    0.16280000
opls_702-45    H    0.37928990    0.88600993    0.11392009    0.09930000
opls_702-46    H    0.38581994    0.16440997    0.17124019    0.15970000
opls_702-47    H    0.34839012    0.21072000    0.07914995    0.16240000
opls_702-48    H    0.35786998    0.21951008    0.23812039    0.12200000
opls_702-49    H    0.37944014    0.49963996    0.14393038    0.04930000
opls_702-50    H    0.31402992    0.57790010    0.15240017    0.04770000
opls_140-51    H    0.39268988    0.56337002    0.47484001    0.10770000
opls_140-52    H    0.35450983    0.54223014    0.47427971    0.10200000
opls_702-53    H    0.43467988    0.52913000    0.14712045    0.04770000
opls_702-54    H    0.36925000    0.60731993    0.14910999    0.04740000
opls_140-55    H    0.42919993    0.48538985    0.35363045    0.04750000
opls_140-56    H    0.31859008    0.62068983    0.36279006    0.04690000
opls_146-57    H    0.53193977    0.58314008    0.28641040    0.10750000
opls_146-58    H    0.38873987    0.67502006    0.25751980    0.11160000
opls_146-59    H    0.35874009    0.43214999    0.24104959    0.11160000
opls_146-60    H    0.21545009    0.52497985    0.27812983    0.11010000
opls_146-61    H    0.20052984    0.24048989    0.71262055    0.10870000
opls_146-62    H    0.21891996    0.16170998    0.74029042    0.11300000
opls_146-63    H    0.50606991    0.95384007    0.67663979    0.11280000
opls_146-64    H    0.52314984    0.87615004    0.63433034    0.11410000
opls_702-65    H    0.34900999    0.92595009    0.73584013    0.16200000
opls_702-66    H    0.34864970    0.94484017    0.58126028    0.16280000
opls_702-67    H    0.37928982    0.88601010    0.61391963    0.09930000
opls_702-68    H    0.38582002    0.16440980    0.67123973    0.15970000
opls_702-69    H    0.34838991    0.21071983    0.57915041    0.16240000
opls_702-70    H    0.35787006    0.21950991    0.73811993    0.12200000
opls_702-71    H    0.37943977    0.49964013    0.64392992    0.04930000
opls_702-72    H    0.31403000    0.57789992    0.65239971    0.04770000
opls_140-73    H    0.39268996    0.56336985    0.97484047    0.10770000
opls_140-74    H    0.35450991    0.54222997    0.97428017    0.10200000
opls_702-75    H    0.43467996    0.52912983    0.64711999    0.04770000
opls_702-76    H    0.36924991    0.60732010    0.64911045    0.04740000
opls_140-77    H    0.42919985    0.48539002    0.85362999    0.04750000
opls_140-78    H    0.31859000    0.62069001    0.86279052    0.04690000
opls_146-79    H    0.53193986    0.58313991    0.78640994    0.10750000
opls_146-80    H    0.38873994    0.67501989    0.75752026    0.11160000
opls_146-81    H    0.35873988    0.43214982    0.74105005    0.11050000
opls_146-82    H    0.21545000    0.52498002    0.77813029    0.11010000
opls_702-83    H    0.21952988    0.61946981    0.87629019    0.16260000
opls_702-84    H    0.22612995    0.61911009    0.71118029    0.16250000
opls_702-85    H    0.18752993    0.60378991    0.77885042    0.10690000
opls_702-86    H    0.52861979    0.48644004    0.85900984    0.16260000
opls_702-87    H    0.52250997    0.48941009    0.69423979    0.16250000
opls_702-88    H    0.56052009    0.50412984    0.76496037    0.10710000
opls_144-89    H    0.09601987    0.39635984    0.77150032    0.09820000
opls_144-90    H    0.30037006    0.28908983    0.73857001    0.10140000
opls_144-91    H    0.21504987    0.47637997    0.64466016    0.10150000
opls_910-92    H    0.07288984    0.48339996    0.80019987    0.25400000
opls_910-93    H    0.29846992    0.42116995    0.64434051    0.25400000
opls_910-94    H    0.27284993    0.26369999    0.56837970    0.25400000
opls_144-95    H    0.53024992    0.63177000    0.65238042    0.10190000
opls_144-96    H    0.62959000    0.73352995    0.55940012    0.09150000
opls_144-97    H    0.43506984    0.82331004    0.73657036    0.09620000
opls_910-98    H    0.44495004    0.69358984    0.68845028    0.25410000
opls_910-99    H    0.49052002    0.83571006    0.53954972    0.25400000
opls_702-100    H    0.21953009    0.61946997    0.37628973    0.16260000
opls_702-101    H    0.22613004    0.61910992    0.21117983    0.16250000
opls_702-102    H    0.18752985    0.60379008    0.27884996    0.10690000
opls_702-103    H    0.52861987    0.48643988    0.35901030    0.16260000
opls_702-104    H    0.52251005    0.48940992    0.19424025    0.16250000
opls_702-105    H    0.56052001    0.50413000    0.26495991    0.10700000
opls_144-106    H    0.09602008    0.39636001    0.27149986    0.09820000
opls_144-107    H    0.30036997    0.28909001    0.23857047    0.10140000
opls_144-108    H    0.21504979    0.47638013    0.14465970    0.10150000
opls_910-109    H    0.07288975    0.48340014    0.30020033    0.25400000
opls_910-110    H    0.29846984    0.42117011    0.14434005    0.25400000
opls_910-111    H    0.27284985    0.26370016    0.06838016    0.25400000
opls_144-112    H    0.53024984    0.63177017    0.15237996    0.10190000
opls_144-113    H    0.62958993    0.73353011    0.05939967    0.09150000
opls_144-114    H    0.43506993    0.82330987    0.23656991    0.09620000
opls_910-115    H    0.44494996    0.69359000    0.18844982    0.25410000
opls_910-116    H    0.49052010    0.83570990    0.03955018    0.25410000
opls_910-117    H    0.66485995    0.66058997    0.45636006    0.25400000
opls_702-118    H    0.91519996    0.58012992    0.63757000    0.08960000
opls_702-119    H    0.90769984    0.53056999    0.48835990    0.11500000
opls_140-120    H    0.82833991    0.53627999    0.81175042    0.10820000
opls_140-121    H    0.88753000    0.49962998    0.80822050    0.10090000
opls_702-122    H    0.83021993    0.63266989    0.64425049    0.08950000
opls_702-123    H    0.82239983    0.58375008    0.49347980    0.11450000
opls_140-124    H    0.86929985    0.58472007    0.85092032    0.11410000
opls_140-125    H    0.85483987    0.49818006    0.59074964    0.04930000
opls_146-126    H    0.67473984    0.70521013    0.74097014    0.11130000
opls_146-127    H    0.73559994    0.58755991    0.49909019    0.11460000
opls_146-128    H    0.99458002    0.53329998    0.80125986    0.11460000
opls_146-129    H    0.05670006    0.41828990    0.55376033    0.10920000
opls_702-130    H    0.96260995    0.40735996    0.49934003    0.16230000
opls_702-131    H    0.95831006    0.44953997    0.39325044    0.12200000
opls_702-132    H    0.01212001    0.40141012    0.42218973    0.10720000
opls_702-133    H    0.76359983    0.67240982    0.93927030    0.16250000
opls_702-134    H    0.77721975    0.69751006    0.81207007    0.15980000
opls_702-135    H    0.72011989    0.72203009    0.86827967    0.15970000
opls_702-136    H    0.42111997    0.02624989    0.57677968    0.04750000
opls_702-137    H    0.35727994    0.01142985    0.57794989    0.04830000
opls_140-138    H    0.34562992    0.08369007    0.91722001    0.09620000
opls_140-139    H    0.38556985    0.02458998    0.90449006    0.10610000
opls_702-140    H    0.36369002    0.10857003    0.58738965    0.04740000
opls_702-141    H    0.30029994    0.09396984    0.59853972    0.08960000
opls_140-142    H    0.41721992    0.07145983    0.79046986    0.08970000
opls_140-143    H    0.31030990    0.04138998    0.80009975    0.08960000
opls_515-144    C    0.90939999    0.55369017    0.17844976    -0.06150000
opls_137-145    C    0.86687987    0.57055010    0.26176985    -0.00310000
opls_137-146    C    0.85955001    0.52601986    0.12587019    -0.00340000
opls_515-147    C    0.90453994    0.52301004    0.08539965    -0.06260000
opls_136-148    C    0.86001993    0.52981015    0.26503982    -0.19680000
opls_515-149    C    0.82714987    0.60442018    0.18414007    -0.06030000
opls_515-150    C    0.82233991    0.57403015    0.09004008    -0.05790000
opls_700-151    C    0.78067981    0.61752003    0.23035971    0.03800000
opls_700-152    C    0.74498002    0.65989996    0.26289046    0.09920000
opls_145-153    C    0.70297001    0.67332998    0.21108981    -0.21860000
opls_916-154    C    0.69856003    0.64701018    0.11580032    0.17570000
opls_145-155    C    0.73642989    0.60583995    0.07946960    -0.20830000
opls_700-156    C    0.77616990    0.59042005    0.14235969    0.05180000
opls_145-157    C    0.99272011    0.50788995    0.24614010    -0.23580000
opls_700-158    C    0.95114986    0.51274997    0.21938967    0.05100000
opls_700-159    C    0.94705011    0.48465001    0.13373008    0.03930000
opls_700-160    C    0.98453990    0.45173006    0.06849957    0.09380000
opls_145-161    C    0.02712997    0.44408001    0.10195987    -0.22230000
opls_916-162    C    0.03169983    0.47119003    0.19335019    0.17930000
opls_148-163    C    0.97922002    0.42598001    0.96475039    -0.46670000
opls_148-164    C    0.75174983    0.68979999    0.35058001    -0.46690000
opls_515-165    C    0.40880993    0.02284997    0.16873995    -0.05760000
opls_137-166    C    0.39104996    0.06474014    0.25475961    -0.00310000
opls_137-167    C    0.33532981    0.04941014    0.25982991    -0.00060000
opls_515-168    C    0.37013991    0.01295004    0.16949957    -0.05970000
opls_136-169    C    0.36467011    0.05534988    0.35160050    -0.16920000
opls_515-170    C    0.35375009    0.10394997    0.18131007    -0.06030000
opls_515-171    C    0.31517997    0.09406998    0.18826979    -0.05760000
opls_700-172    C    0.32399995    0.14761009    0.24875975    0.04090000
opls_700-173    C    0.31518984    0.19073014    0.21442960    0.04760000
opls_916-174    C    0.26943994    0.22564003    0.20737986    0.19860000
opls_145-175    C    0.23505003    0.21502983    0.22665986    -0.18850000
opls_145-176    C    0.24492006    0.17063006    0.24573043    -0.11770000
opls_700-177    C    0.28932986    0.13758015    0.25959017    0.04950000
opls_145-178    C    0.48037983    0.94471018    0.18966045    -0.12380000
opls_700-179    C    0.43684995    0.97712999    0.22298022    0.04950000
opls_700-180    C    0.40186001    0.96748003    0.22045976    0.04010000
opls_700-181    C    0.40930977    0.92539013    0.17888973    0.05050000
opls_916-182    C    0.45427001    0.89065996    0.15552961    0.19790000
opls_145-183    C    0.48936993    0.90090999    0.16224960    -0.19860000
opls_148-184    C    0.36953980    0.91999016    0.15080009    -0.46320000
opls_148-185    C    0.35374010    0.19693987    0.17312043    -0.46320000
opls_515-186    C    0.36757999    0.51461999    0.23712011    -0.05030000
opls_137-187    C    0.40275003    0.51797994    0.31760009    -0.00040000
opls_137-188    C    0.34520000    0.58827987    0.32233972    -0.00310000
opls_515-189    C    0.32782017    0.56280984    0.24254037    -0.06260000
opls_136-190    C    0.37377006    0.55291993    0.41472022    -0.17260000
opls_515-191    C    0.42048989    0.54380992    0.23936959    -0.05970000
opls_515-192    C    0.38064003    0.59200012    0.24043968    -0.05020000
opls_700-193    C    0.44601999    0.56247009    0.30472043    0.03650000
opls_700-194    C    0.49006000    0.55323997    0.28952974    0.10040000
opls_145-195    C    0.49768009    0.59008998    0.28631028    -0.22390000
opls_916-196    C    0.46125002    0.63502985    0.27395969    0.18180000
opls_145-197    C    0.41698997    0.64236013    0.27798011    -0.23270000
opls_700-198    C    0.41014002    0.60632998    0.30289990    0.04830000
opls_145-199    C    0.33053981    0.46462016    0.26747026    -0.23850000
opls_700-200    C    0.33762013    0.50007992    0.29905033    0.05020000
opls_700-201    C    0.30185995    0.54407989    0.30729049    0.03610000
opls_700-202    C    0.25781981    0.55383002    0.29302016    0.09970000
opls_145-203    C    0.24986993    0.51742001    0.28031961    -0.22390000
opls_916-204    C    0.28621999    0.47249003    0.26100012    0.18310000
opls_148-205    C    0.22050990    0.60178987    0.28957015    -0.46610000
opls_916-206    C    0.26944002    0.22563986    0.70738032    0.19870000
opls_145-207    C    0.23504994    0.21503000    0.72666032    -0.18850000
opls_145-208    C    0.24491986    0.17062989    0.74572997    -0.11770000
opls_700-209    C    0.28932995    0.13757998    0.75958971    0.04950000
opls_145-210    C    0.48037992    0.94471001    0.68965999    -0.12370000
opls_700-211    C    0.43684987    0.97713015    0.72297976    0.04950000
opls_700-212    C    0.40186009    0.96747986    0.72046022    0.04010000
opls_700-213    C    0.40930985    0.92538996    0.67889019    0.05050000
opls_916-214    C    0.45426993    0.89066013    0.65553007    0.19800000
opls_145-215    C    0.48937001    0.90090983    0.66225006    -0.19860000
opls_148-216    C    0.36953987    0.91998999    0.65080055    -0.46330000
opls_148-217    C    0.35374002    0.19694004    0.67311997    -0.46320000
opls_515-218    C    0.36758007    0.51461982    0.73711965    -0.05020000
opls_137-219    C    0.40274994    0.51798011    0.81760055    -0.00040000
opls_137-220    C    0.34519992    0.58828004    0.82234018    -0.00310000
opls_515-221    C    0.32781980    0.56281001    0.74253991    -0.06260000
opls_136-222    C    0.37376998    0.55292010    0.91471976    -0.17270000
opls_515-223    C    0.42048980    0.54381010    0.73937005    -0.05970000
opls_515-224    C    0.38063981    0.59199995    0.74044014    -0.05020000
opls_700-225    C    0.44602008    0.56246991    0.80471997    0.03650000
opls_700-226    C    0.49006008    0.55323981    0.78953020    0.10040000
opls_145-227    C    0.49767988    0.59008981    0.78630982    -0.22390000
opls_916-228    C    0.46124993    0.63503002    0.77396015    0.18180000
opls_145-229    C    0.41699005    0.64235996    0.77797965    -0.23280000
opls_700-230    C    0.41014010    0.60632981    0.80290036    0.04830000
opls_145-231    C    0.33053989    0.46461998    0.76746980    -0.23850000
opls_700-232    C    0.33761976    0.50008009    0.79904987    0.05020000
opls_700-233    C    0.30185987    0.54408006    0.80729003    0.03610000
opls_700-234    C    0.25781989    0.55382985    0.79301970    0.09970000
opls_145-235    C    0.24987001    0.51741984    0.78032007    -0.22380000
opls_916-236    C    0.28622008    0.47248985    0.76099966    0.18310000
opls_148-237    C    0.22050982    0.60179003    0.78956970    -0.46600000
opls_148-238    C    0.52769006    0.50557989    0.77614993    -0.46790000
opls_280-239    C    0.24531996    0.37485012    0.78407044    0.32370000
opls_145-240    C    0.21757986    0.42018992    0.72986967    -0.15950000
opls_280-241    C    0.17064982    0.43367007    0.69685026    0.15350000
opls_145-242    C    0.15215978    0.40349006    0.72741994    -0.19590000
opls_280-243    C    0.18475010    0.35484986    0.74558025    0.31340000
opls_145-244    C    0.23319981    0.33973004    0.75808056    -0.12010000
opls_142-245    C    0.10757982    0.41911004    0.74036023    0.05120000
opls_142-246    C    0.26580996    0.29738004    0.72905034    0.04630000
opls_142-247    C    0.23478006    0.44693997    0.70017994    0.04180000
opls_280-248    C    0.54846985    0.76370982    0.65751043    0.14720000
opls_145-249    C    0.50311992    0.77559987    0.70555979    -0.11600000
opls_280-250    C    0.49800999    0.73884008    0.76069011    0.32160000
opls_145-251    C    0.52616998    0.69219996    0.71058967    -0.15470000
opls_280-252    C    0.57020996    0.68021004    0.65132044    0.20620000
opls_145-253    C    0.58239005    0.71589986    0.62751023    -0.12690000
opls_142-254    C    0.51113985    0.66239994    0.70716997    0.05120000
opls_142-255    C    0.62277982    0.70634000    0.57914031    0.04170000
opls_142-256    C    0.46638997    0.81689989    0.69300988    0.04450000
opls_145-257    C    0.99271973    0.50789012    0.74614056    -0.23590000
opls_700-258    C    0.98453998    0.45172989    0.56850003    0.09370000
opls_145-259    C    0.02713005    0.44407984    0.60196033    -0.22220000
opls_916-260    C    0.03169992    0.47118986    0.69334973    0.17940000
opls_515-261    C    0.40881001    0.02284981    0.66874041    -0.05760000
opls_515-262    C    0.37013999    0.01294987    0.66950003    -0.05960000
opls_148-263    C    0.52768997    0.50558006    0.27615039    -0.46790000
opls_280-264    C    0.24532005    0.37484995    0.28406998    0.32380000
opls_145-265    C    0.21757978    0.42019009    0.22987013    -0.15950000
opls_280-266    C    0.17064991    0.43366990    0.19684980    0.15350000
opls_145-267    C    0.15216015    0.40348989    0.22742040    -0.19590000
opls_280-268    C    0.18475002    0.35485003    0.24557979    0.31340000
opls_145-269    C    0.23319989    0.33972987    0.25808010    -0.12010000
opls_142-270    C    0.10757990    0.41910987    0.24035977    0.05120000
opls_142-271    C    0.26581005    0.29737987    0.22904988    0.04630000
opls_142-272    C    0.23477997    0.44694014    0.20018040    0.04180000
opls_280-273    C    0.54847006    0.76370999    0.15750997    0.14720000
opls_145-274    C    0.50311983    0.77560004    0.20556025    -0.11600000
opls_280-275    C    0.49801008    0.73883991    0.26068965    0.32170000
opls_145-276    C    0.52616989    0.69220013    0.21059013    -0.15470000
opls_280-277    C    0.57021005    0.68020987    0.15131998    0.20620000
opls_145-278    C    0.58238997    0.71590003    0.12750978    -0.12690000
opls_142-279    C    0.51114005    0.66240011    0.20717043    0.05120000
opls_142-280    C    0.62278003    0.70634017    0.07913985    0.04170000
opls_142-281    C    0.46638988    0.81690006    0.19301033    0.04450000
opls_515-282    C    0.90939978    0.55369001    0.67845022    -0.06150000
opls_137-283    C    0.86687995    0.57054993    0.76177031    -0.00310000
opls_137-284    C    0.85954993    0.52602003    0.62586974    -0.00340000
opls_515-285    C    0.90454002    0.52300988    0.58540011    -0.06260000
opls_136-286    C    0.86002001    0.52980998    0.76504028    -0.19680000
opls_515-287    C    0.82714995    0.60442001    0.68414052    -0.06030000
opls_515-288    C    0.82233999    0.57402999    0.59004053    -0.05790000
opls_700-289    C    0.78067989    0.61751986    0.73036017    0.03790000
opls_700-290    C    0.74497994    0.65990013    0.76289000    0.09910000
opls_145-291    C    0.70296992    0.67333015    0.71109027    -0.21860000
opls_916-292    C    0.69855983    0.64701001    0.61579986    0.17570000
opls_145-293    C    0.73642980    0.60584012    0.57947006    -0.20820000
opls_700-294    C    0.77616998    0.59041988    0.64236015    0.05180000
opls_700-295    C    0.95114978    0.51275014    0.71939013    0.05100000
opls_700-296    C    0.94704990    0.48464985    0.63373054    0.03930000
opls_148-297    C    0.97922010    0.42597983    0.46474993    -0.46670000
opls_148-298    C    0.75174991    0.68979982    0.85058047    -0.46600000
opls_137-299    C    0.39105004    0.06473997    0.75476007    -0.00310000
opls_137-300    C    0.33532989    0.04940997    0.75983037    -0.00060000
opls_136-301    C    0.36466974    0.05535005    0.85160004    -0.16920000
opls_515-302    C    0.35374988    0.10394980    0.68131053    -0.06030000
opls_515-303    C    0.31518005    0.09406981    0.68827025    -0.05760000
opls_700-304    C    0.32400003    0.14760993    0.74876021    0.04090000
opls_700-305    C    0.31518992    0.19072997    0.71443006    0.04760000
opls_281-306    O    0.17171989    0.32754983    0.75202008    -0.39340000
opls_281-307    O    0.27842004    0.36593996    0.84373005    -0.40950000
opls_281-308    O    0.14751990    0.46926006    0.64480988    -0.36290000
opls_281-309    O    0.59631995    0.64091013    0.62256026    -0.36300000
opls_281-310    O    0.55888983    0.79293999    0.64967994    -0.37410000
opls_281-311    O    0.47008969    0.74710014    0.84253045    -0.39090000
opls_281-312    O    0.17172010    0.32755000    0.25201962    -0.39340000
opls_281-313    O    0.27841996    0.36594012    0.34372959    -0.40940000
opls_281-314    O    0.14751998    0.46925989    0.14481034    -0.36300000
opls_281-315    O    0.59632004    0.64090996    0.12255980    -0.36290000
opls_281-316    O    0.55889003    0.79294017    0.14968040    -0.37410000
opls_281-317    O    0.47009007    0.74709997    0.34252999    -0.39110000
