#======================================================================
# Crystal Data Generated By AuToFF
#----------------------------------------------------------------------

data_AuToFF_phase_1

_cell_length_a                         16.4705
_cell_length_b                         30.7826
_cell_length_c                         3.0169
_cell_angle_alpha                      90.00
_cell_angle_beta                       90.00
_cell_angle_gamma                      90.00
_symmetry_space_group_name_H-M_alt     'P 1'
_symmetry_space_group_IT_number        1

loop_
_space_group_symop_operation_xyz
   'x, y, z'

loop_
   _atom_site_label
   _atom_site_type_symbol
   _atom_site_fract_x
   _atom_site_fract_y
   _atom_site_fract_z
   _atom_site_charge
opls_145-0    C    0.93317993    0.07952999    0.50000000    0.00990000
opls_147-1    C    0.93549983    0.04013014    0.50000000    0.00830000
opls_145-2    C    0.87449015    0.01852995    0.50000000    -0.20950000
opls_145-3    C    0.87101970    0.89546984    0.50000000    0.03570000
opls_145-4    C    0.79751009    0.90557003    0.50000000    -0.20470000
opls_145-5    C    0.74187001    0.88129008    0.50000000    -0.22600000
opls_145-6    C    0.75100027    0.84320005    0.50000000    0.12570000
opls_145-7    C    0.82208980    0.83162014    0.50000000    -0.22780000
opls_145-8    C    0.87838013    0.85595011    0.50000000    -0.20630000
opls_142-9    C    0.62718982    0.82975999    0.50000000    0.06770000
opls_145-10    C    0.56580978    0.80558010    0.50000000    0.01520000
opls_145-11    C    0.43545976    0.76704015    0.50000000    -0.20570000
opls_145-12    C    0.43317993    0.57952999    0.50000000    0.00990000
opls_147-13    C    0.43549983    0.54013014    0.50000000    0.00830000
opls_145-14    C    0.37449015    0.51852995    0.50000000    -0.20950000
opls_145-15    C    0.37101970    0.39546984    0.50000000    0.03570000
opls_145-16    C    0.29751009    0.40557003    0.50000000    -0.20460000
opls_145-17    C    0.24187001    0.38129008    0.50000000    -0.22620000
opls_145-18    C    0.25100027    0.34320005    0.50000000    0.12570000
opls_145-19    C    0.32208980    0.33162014    0.50000000    -0.22770000
opls_145-20    C    0.37838013    0.35595011    0.50000000    -0.20630000
opls_142-21    C    0.12718982    0.32975999    0.50000000    0.06770000
opls_145-22    C    0.06580978    0.30558010    0.50000000    0.01520000
opls_145-23    C    0.93545976    0.26704015    0.50000000    -0.20570000
opls_145-24    C    0.06682007    0.92047001    0.50000000    0.00990000
opls_147-25    C    0.06450017    0.95986986    0.50000000    0.00830000
opls_145-26    C    0.12550985    0.98147005    0.50000000    -0.20950000
opls_145-27    C    0.12898030    0.10453016    0.50000000    0.03580000
opls_145-28    C    0.20248991    0.09442997    0.50000000    -0.20470000
opls_145-29    C    0.25812999    0.11870992    0.50000000    -0.22620000
opls_145-30    C    0.24899973    0.15679995    0.50000000    0.12570000
opls_145-31    C    0.17791020    0.16837986    0.50000000    -0.22770000
opls_145-32    C    0.12161987    0.14404989    0.50000000    -0.20630000
opls_142-33    C    0.37281018    0.17024001    0.50000000    0.06770000
opls_145-34    C    0.43419022    0.19441990    0.50000000    0.01520000
opls_145-35    C    0.56454024    0.23295985    0.50000000    -0.20570000
opls_145-36    C    0.56682007    0.42047001    0.50000000    0.00990000
opls_147-37    C    0.56450017    0.45986986    0.50000000    0.00830000
opls_145-38    C    0.62550985    0.48147005    0.50000000    -0.20950000
opls_145-39    C    0.62898030    0.60453016    0.50000000    0.03570000
opls_145-40    C    0.70248991    0.59442997    0.50000000    -0.20470000
opls_145-41    C    0.75812999    0.61870992    0.50000000    -0.22620000
opls_145-42    C    0.74899973    0.65679995    0.50000000    0.12570000
opls_145-43    C    0.67791020    0.66837986    0.50000000    -0.22780000
opls_145-44    C    0.62161987    0.64404989    0.50000000    -0.20630000
opls_142-45    C    0.87281018    0.67024001    0.50000000    0.06770000
opls_145-46    C    0.93419022    0.69441990    0.50000000    0.01520000
opls_145-47    C    0.06454024    0.73295985    0.50000000    -0.20570000
opls_145-48    C    0.06682007    0.07952999    0.50000000    0.00990000
opls_147-49    C    0.06450017    0.04013014    0.50000000    0.00830000
opls_145-50    C    0.12550985    0.01852995    0.50000000    -0.20950000
opls_145-51    C    0.12898030    0.89546984    0.50000000    0.03570000
opls_145-52    C    0.20248991    0.90557003    0.50000000    -0.20470000
opls_145-53    C    0.25812999    0.88129008    0.50000000    -0.22620000
opls_145-54    C    0.24899973    0.84320005    0.50000000    0.12570000
opls_145-55    C    0.17791020    0.83162014    0.50000000    -0.22780000
opls_145-56    C    0.12161987    0.85595011    0.50000000    -0.20630000
opls_142-57    C    0.37281018    0.82975999    0.50000000    0.06780000
opls_145-58    C    0.43419022    0.80558010    0.50000000    0.01520000
opls_145-59    C    0.56454024    0.76704015    0.50000000    -0.20570000
opls_145-60    C    0.56682007    0.57952999    0.50000000    0.00990000
opls_147-61    C    0.56450017    0.54013014    0.50000000    0.00830000
opls_145-62    C    0.62550985    0.51852995    0.50000000    -0.20950000
opls_145-63    C    0.62898030    0.39546984    0.50000000    0.03570000
opls_145-64    C    0.70248991    0.40557003    0.50000000    -0.20470000
opls_145-65    C    0.75812999    0.38129008    0.50000000    -0.22620000
opls_145-66    C    0.74899973    0.34320005    0.50000000    0.12570000
opls_145-67    C    0.67791020    0.33162014    0.50000000    -0.22780000
opls_145-68    C    0.62161987    0.35595011    0.50000000    -0.20630000
opls_142-69    C    0.87281018    0.32975999    0.50000000    0.06770000
opls_145-70    C    0.93419022    0.30558010    0.50000000    0.01520000
opls_145-71    C    0.06454024    0.26704015    0.50000000    -0.20570000
opls_145-72    C    0.93317993    0.92047001    0.50000000    0.00990000
opls_147-73    C    0.93549983    0.95986986    0.50000000    0.00830000
opls_145-74    C    0.87449015    0.98147005    0.50000000    -0.20950000
opls_145-75    C    0.87101970    0.10453016    0.50000000    0.03570000
opls_145-76    C    0.79751009    0.09442997    0.50000000    -0.20470000
opls_145-77    C    0.74187001    0.11870992    0.50000000    -0.22620000
opls_145-78    C    0.75100027    0.15679995    0.50000000    0.12570000
opls_145-79    C    0.82208980    0.16837986    0.50000000    -0.22780000
opls_145-80    C    0.87838013    0.14404989    0.50000000    -0.20630000
opls_142-81    C    0.62718982    0.17024001    0.50000000    0.06770000
opls_145-82    C    0.56580978    0.19441990    0.50000000    0.01520000
opls_145-83    C    0.43545976    0.23295985    0.50000000    -0.20560000
opls_145-84    C    0.43317993    0.42047001    0.50000000    0.00990000
opls_147-85    C    0.43549983    0.45986986    0.50000000    0.00830000
opls_145-86    C    0.37449015    0.48147005    0.50000000    -0.20950000
opls_145-87    C    0.37101970    0.60453016    0.50000000    0.03570000
opls_145-88    C    0.29751009    0.59442997    0.50000000    -0.20470000
opls_145-89    C    0.24187001    0.61870992    0.50000000    -0.22620000
opls_145-90    C    0.25100027    0.65679995    0.50000000    0.12570000
opls_145-91    C    0.32208980    0.66837986    0.50000000    -0.22770000
opls_145-92    C    0.37838013    0.64404989    0.50000000    -0.20620000
opls_142-93    C    0.12718982    0.67024001    0.50000000    0.06770000
opls_145-94    C    0.06580978    0.69441990    0.50000000    0.01520000
opls_145-95    C    0.93545976    0.73295985    0.50000000    -0.20560000
opls_145-96    C    0.00000000    0.01975012    0.50000000    0.00350000
opls_145-97    C    0.00000000    0.09587007    0.50000000    -0.15900000
opls_145-98    C    0.00000000    0.32338009    0.50000000    -0.14960000
opls_145-99    C    0.00000000    0.24804987    0.50000000    -0.15820000
opls_145-100    C    0.50000000    0.51975012    0.50000000    0.00350000
opls_145-101    C    0.50000000    0.59587007    0.50000000    -0.15890000
opls_145-102    C    0.50000000    0.82338009    0.50000000    -0.14950000
opls_145-103    C    0.50000000    0.74804987    0.50000000    -0.15820000
opls_145-104    C    0.00000000    0.98024988    0.50000000    0.00350000
opls_145-105    C    0.00000000    0.90412993    0.50000000    -0.15900000
opls_145-106    C    0.00000000    0.67661991    0.50000000    -0.14960000
opls_145-107    C    0.00000000    0.75195013    0.50000000    -0.15820000
opls_145-108    C    0.50000000    0.48024988    0.50000000    0.00350000
opls_145-109    C    0.50000000    0.40412993    0.50000000    -0.15900000
opls_145-110    C    0.50000000    0.17661991    0.50000000    -0.14960000
opls_145-111    C    0.50000000    0.25195013    0.50000000    -0.15820000
opls_750-112    N    0.69283021    0.81827006    0.50000000    -0.24610000
opls_750-113    N    0.19283021    0.31827006    0.50000000    -0.24600000
opls_750-114    N    0.30716979    0.18172994    0.50000000    -0.24600000
opls_750-115    N    0.80716979    0.68172994    0.50000000    -0.24610000
opls_750-116    N    0.30716979    0.81827006    0.50000000    -0.24590000
opls_750-117    N    0.80716979    0.31827006    0.50000000    -0.24610000
opls_750-118    N    0.69283021    0.18172994    0.50000000    -0.24610000
opls_750-119    N    0.19283021    0.68172994    0.50000000    -0.24590000
opls_146-120    H    0.82070004    0.02829001    0.50000000    0.18760000
opls_146-121    H    0.77502019    0.93280002    0.50000000    0.18760000
opls_146-122    H    0.83362011    0.80208007    0.50000000    0.18760000
opls_146-123    H    0.92975987    0.84172000    0.50000000    0.18760000
opls_146-124    H    0.31128988    0.89376011    0.50000000    0.18770000
opls_144-125    H    0.61275978    0.85891997    0.50000000    0.08800000
opls_146-126    H    0.38524028    0.75168992    0.50000000    0.18770000
opls_146-127    H    0.32070004    0.52829001    0.50000000    0.18760000
opls_146-128    H    0.27502019    0.43280002    0.50000000    0.18760000
opls_146-129    H    0.33362011    0.30208007    0.50000000    0.18760000
opls_146-130    H    0.42975987    0.34172000    0.50000000    0.18770000
opls_146-131    H    0.81128988    0.39376011    0.50000000    0.18770000
opls_144-132    H    0.11275978    0.35891997    0.50000000    0.08800000
opls_146-133    H    0.88524028    0.25168992    0.50000000    0.18760000
opls_146-134    H    0.17929996    0.97170999    0.50000000    0.18760000
opls_146-135    H    0.22497981    0.06719998    0.50000000    0.18760000
opls_146-136    H    0.16637989    0.19791993    0.50000000    0.18760000
opls_146-137    H    0.07024013    0.15828000    0.50000000    0.18760000
opls_146-138    H    0.68871012    0.10623989    0.50000000    0.18760000
opls_144-139    H    0.38724022    0.14108003    0.50000000    0.08800000
opls_146-140    H    0.61475972    0.24831008    0.50000000    0.18760000
opls_146-141    H    0.67929996    0.47170999    0.50000000    0.18760000
opls_146-142    H    0.72497981    0.56719998    0.50000000    0.18770000
opls_146-143    H    0.66637989    0.69791993    0.50000000    0.18760000
opls_146-144    H    0.57024013    0.65828000    0.50000000    0.18760000
opls_146-145    H    0.18871012    0.60623989    0.50000000    0.18760000
opls_144-146    H    0.88724022    0.64108003    0.50000000    0.08800000
opls_146-147    H    0.11475972    0.74831008    0.50000000    0.18760000
opls_146-148    H    0.17929996    0.02829001    0.50000000    0.18760000
opls_146-149    H    0.22497981    0.93280002    0.50000000    0.18760000
opls_146-150    H    0.16637989    0.80208007    0.50000000    0.18760000
opls_146-151    H    0.07024013    0.84172000    0.50000000    0.18770000
opls_146-152    H    0.68871012    0.89376011    0.50000000    0.18780000
opls_144-153    H    0.38724022    0.85891997    0.50000000    0.08800000
opls_146-154    H    0.61475972    0.75168992    0.50000000    0.18760000
opls_146-155    H    0.67929996    0.52829001    0.50000000    0.18770000
opls_146-156    H    0.72497981    0.43280002    0.50000000    0.18770000
opls_146-157    H    0.66637989    0.30208007    0.50000000    0.18760000
opls_146-158    H    0.57024013    0.34172000    0.50000000    0.18760000
opls_146-159    H    0.18871012    0.39376011    0.50000000    0.18760000
opls_144-160    H    0.88724022    0.35891997    0.50000000    0.08800000
opls_146-161    H    0.11475972    0.25168992    0.50000000    0.18770000
opls_146-162    H    0.82070004    0.97170999    0.50000000    0.18760000
opls_146-163    H    0.77502019    0.06719998    0.50000000    0.18760000
opls_146-164    H    0.83362011    0.19791993    0.50000000    0.18760000
opls_146-165    H    0.92975987    0.15828000    0.50000000    0.18760000
opls_146-166    H    0.31128988    0.10623989    0.50000000    0.18760000
opls_144-167    H    0.61275978    0.14108003    0.50000000    0.08810000
opls_146-168    H    0.38524028    0.24831008    0.50000000    0.18760000
opls_146-169    H    0.32070004    0.47170999    0.50000000    0.18760000
opls_146-170    H    0.27502019    0.56719998    0.50000000    0.18760000
opls_146-171    H    0.33362011    0.69791993    0.50000000    0.18770000
opls_146-172    H    0.42975987    0.65828000    0.50000000    0.18760000
opls_146-173    H    0.81128988    0.60623989    0.50000000    0.18760000
opls_144-174    H    0.11275978    0.64108003    0.50000000    0.08800000
opls_146-175    H    0.88524028    0.74831008    0.50000000    0.18760000
opls_146-176    H    0.00000000    0.12541988    0.50000000    0.18770000
opls_146-177    H    0.00000000    0.35351010    0.50000000    0.18760000
opls_146-178    H    0.00000000    0.21794001    0.50000000    0.18760000
opls_146-179    H    0.50000000    0.62541988    0.50000000    0.18770000
opls_146-180    H    0.50000000    0.85351010    0.50000000    0.18760000
opls_146-181    H    0.50000000    0.71794001    0.50000000    0.18760000
opls_146-182    H    0.00000000    0.87458012    0.50000000    0.18770000
opls_146-183    H    0.00000000    0.64648990    0.50000000    0.18760000
opls_146-184    H    0.00000000    0.78205999    0.50000000    0.18770000
opls_146-185    H    0.50000000    0.37458012    0.50000000    0.18760000
opls_146-186    H    0.50000000    0.14648990    0.50000000    0.18760000
opls_146-187    H    0.50000000    0.28205999    0.50000000    0.18760000
