#======================================================================
# Crystal Data Generated By AuToFF
#----------------------------------------------------------------------

data_AuToFF_phase_1

_cell_length_a                         7.1056
_cell_length_b                         23.8773
_cell_length_c                         25.1701
_cell_angle_alpha                      90.00
_cell_angle_beta                       90.00
_cell_angle_gamma                      90.00
_symmetry_space_group_name_H-M_alt     'P 1'
_symmetry_space_group_IT_number        1

loop_
_space_group_symop_operation_xyz
   'x, y, z'

loop_
   _atom_site_label
   _atom_site_type_symbol
   _atom_site_fract_x
   _atom_site_fract_y
   _atom_site_fract_z
   _atom_site_charge
opls_716-0    C    0.21211017    0.81262999    0.52639997    -0.14440000
opls_716-1    C    0.20595024    0.81262999    0.47432986    -0.14500000
opls_543-2    C    0.22942046    0.87084009    0.45762989    0.22280000
opls_543-3    C    0.23922962    0.87086019    0.54255009    0.23480000
opls_716-4    C    0.30754053    0.01590004    0.66202002    -0.13900000
opls_543-5    C    0.27581063    0.94274981    0.61005002    0.24160000
opls_700-6    C    0.25569973    0.88681007    0.59548989    -0.05370000
opls_716-7    C    0.28426030    0.95896982    0.33766016    -0.13950000
opls_543-8    C    0.25794022    0.03222014    0.38978987    0.24160000
opls_700-9    C    0.23455021    0.88675018    0.40445012    -0.05820000
opls_700-10    C    0.24992963    0.13159989    0.63808010    0.08220000
opls_145-11    C    0.20456964    0.84348984    0.36213007    0.07240000
opls_145-12    C    0.36901036    0.17838994    0.63615997    -0.07590000
opls_145-13    C    0.37074983    0.21698014    0.67785984    -0.11300000
opls_145-14    C    0.25626970    0.20915011    0.72240992    0.22390000
opls_145-15    C    0.13620947    0.16253010    0.72429986    -0.13620000
opls_145-16    C    0.13194945    0.12449984    0.68231990    -0.09470000
opls_145-17    C    0.10329036    0.11913994    0.30959988    -0.07960000
opls_145-18    C    0.15166066    0.15714005    0.26643994    -0.10420000
opls_145-19    C    0.26543993    0.20615983    0.27403983    0.23510000
opls_145-20    C    0.34085932    0.21894980    0.32804995    -0.11210000
opls_145-21    C    0.29476047    0.17836983    0.35930012    -0.16180000
opls_145-22    C    0.15622045    0.45825994    0.96586982    -0.11310000
opls_916-23    C    0.27516044    0.54664011    0.00003019    0.19520000
opls_145-24    C    0.39545992    0.51677995    0.03409998    -0.13650000
opls_916-25    C    0.29125056    0.64101008    0.04650995    0.19710000
opls_916-26    C    0.23851047    0.63474011    0.94868991    0.19680000
opls_145-27    C    0.31743977    0.69922018    0.04231012    -0.13630000
opls_145-28    C    0.31433939    0.73343008    0.08705011    -0.07750000
opls_700-29    C    0.28914940    0.71016991    0.13727995    0.07840000
opls_145-30    C    0.26888933    0.65208001    0.14273006    -0.07600000
opls_145-31    C    0.26903991    0.61774991    0.09752007    -0.13660000
opls_145-32    C    0.35318059    0.62421002    0.90440006    -0.13600000
opls_145-33    C    0.32670992    0.65433990    0.85726000    -0.07600000
opls_700-34    C    0.18518070    0.69515021    0.85415990    0.07120000
opls_145-35    C    0.06778034    0.70443015    0.89772985    -0.11110000
opls_145-36    C    0.09336017    0.67431996    0.94457988    -0.11310000
opls_142-37    C    0.16578051    0.73215020    0.80811995    0.09870000
opls_142-38    C    0.26726948    0.74837984    0.18217011    0.03990000
opls_716-39    C    0.21182025    0.16222982    0.52643017    -0.14300000
opls_716-40    C    0.20557025    0.16223987    0.47436999    -0.14500000
opls_543-41    C    0.22912069    0.10403019    0.45765015    0.22240000
opls_543-42    C    0.23909029    0.10400003    0.54256995    0.23460000
opls_716-43    C    0.30755038    0.95895013    0.66202002    -0.13840000
opls_543-44    C    0.27578952    0.03209994    0.61005995    0.24320000
opls_700-45    C    0.25564062    0.08804011    0.59549982    -0.05290000
opls_716-46    C    0.28416038    0.01593983    0.33766016    -0.13950000
opls_543-47    C    0.25810065    0.94266982    0.38978987    0.24160000
opls_700-48    C    0.23422934    0.08813015    0.40446999    -0.05680000
opls_700-49    C    0.24997045    0.84323981    0.63807017    0.08220000
opls_145-50    C    0.20407988    0.13140012    0.36215986    0.07260000
opls_145-51    C    0.36905961    0.79645018    0.63614010    -0.07590000
opls_145-52    C    0.37081035    0.75785998    0.67784991    -0.11310000
opls_145-53    C    0.25634992    0.76570006    0.72239999    0.22390000
opls_145-54    C    0.13627984    0.81232007    0.72428993    -0.13630000
opls_145-55    C    0.13200011    0.85033986    0.68230003    -0.09470000
opls_145-56    C    0.10378012    0.85572992    0.30956015    -0.07960000
opls_145-57    C    0.15215042    0.81771013    0.26642008    -0.10420000
opls_145-58    C    0.26594939    0.76869998    0.27401997    0.23500000
opls_145-59    C    0.34138004    0.75593011    0.32804002    -0.11210000
opls_145-60    C    0.29526008    0.79651007    0.35927986    -0.16180000
opls_145-61    C    0.15627955    0.51660992    0.96586982    -0.11310000
opls_916-62    C    0.27505066    0.42822011    0.00004013    0.20000000
opls_145-63    C    0.39539940    0.45806017    0.03409998    -0.13650000
opls_916-64    C    0.29092969    0.33384009    0.04650995    0.19680000
opls_916-65    C    0.23831063    0.34013017    0.94868991    0.19670000
opls_145-66    C    0.31689935    0.27561994    0.04231012    -0.13630000
opls_145-67    C    0.31371031    0.24139999    0.08705011    -0.07760000
opls_700-68    C    0.28865965    0.26467984    0.13728988    0.07840000
opls_145-69    C    0.26862052    0.32277016    0.14274000    -0.07600000
opls_145-70    C    0.26886962    0.35709984    0.09752007    -0.13660000
opls_145-71    C    0.35310037    0.35063010    0.90441993    -0.13610000
opls_145-72    C    0.32663955    0.32049981    0.85727987    -0.07600000
opls_700-73    C    0.18501041    0.27972007    0.85415990    0.07120000
opls_145-74    C    0.06750028    0.27046986    0.89770998    -0.11110000
opls_145-75    C    0.09307025    0.30058005    0.94456995    -0.13630000
opls_142-76    C    0.16562007    0.24272007    0.80811002    0.09870000
opls_142-77    C    0.26673047    0.22646991    0.18218005    0.03990000
opls_716-78    C    0.71183011    0.31261994    0.52643017    -0.14300000
opls_716-79    C    0.70557025    0.31260988    0.47436999    -0.14500000
opls_543-80    C    0.72912069    0.37081998    0.45765015    0.22240000
opls_543-81    C    0.73909029    0.37085014    0.54256995    0.23590000
opls_716-82    C    0.80755038    0.51590004    0.66202002    -0.13840000
opls_543-83    C    0.77578952    0.44274981    0.61005995    0.24320000
opls_700-84    C    0.75562936    0.38681007    0.59549982    -0.05290000
opls_716-85    C    0.78416038    0.45890993    0.33766016    -0.13940000
opls_543-86    C    0.75810065    0.53217994    0.38978987    0.24160000
opls_700-87    C    0.73421949    0.38672002    0.40446999    -0.05680000
opls_700-88    C    0.74998030    0.63159989    0.63807017    0.08220000
opls_145-89    C    0.70407988    0.34345006    0.36215986    0.07240000
opls_145-90    C    0.86905961    0.67839999    0.63614010    -0.07590000
opls_145-91    C    0.87081035    0.71699020    0.67784991    -0.11310000
opls_145-92    C    0.75634992    0.70915011    0.72239999    0.22400000
opls_145-93    C    0.63628969    0.66253010    0.72428993    -0.13630000
opls_145-94    C    0.63200996    0.62450989    0.68230996    -0.09470000
opls_145-95    C    0.60378012    0.61911983    0.30956015    -0.07960000
opls_145-96    C    0.65215042    0.65712999    0.26642008    -0.10420000
opls_145-97    C    0.76594939    0.70615019    0.27401997    0.23560000
opls_145-98    C    0.84138989    0.71892006    0.32804002    -0.11210000
opls_145-99    C    0.79526993    0.67834010    0.35927986    -0.16170000
opls_145-100    C    0.65627955    0.95823020    0.96586982    -0.11310000
opls_916-101    C    0.77505066    0.04663006    0.00004013    0.19530000
opls_145-102    C    0.89541066    0.01679001    0.03409998    -0.13650000
opls_916-103    C    0.79092969    0.14101008    0.04650995    0.19700000
opls_916-104    C    0.73829937    0.13472001    0.94868991    0.19670000
opls_145-105    C    0.81689935    0.19922981    0.04231012    -0.13630000
opls_145-106    C    0.81371031    0.23344013    0.08705011    -0.07750000
opls_700-107    C    0.78865965    0.21016991    0.13728988    0.08030000
opls_145-108    C    0.76862052    0.15208001    0.14274000    -0.07590000
opls_145-109    C    0.76885977    0.11774991    0.09752007    -0.13660000
opls_145-110    C    0.85309052    0.12422008    0.90441993    -0.13600000
opls_145-111    C    0.82662970    0.15434995    0.85727987    -0.07600000
opls_700-112    C    0.68500056    0.19513010    0.85415990    0.06720000
opls_145-113    C    0.56748058    0.20437989    0.89770998    -0.11110000
opls_145-114    C    0.59306040    0.17427012    0.94456995    -0.13630000
opls_142-115    C    0.66561022    0.23213010    0.80811002    0.09870000
opls_142-116    C    0.76673047    0.24837021    0.18218005    0.03990000
opls_716-117    C    0.71210032    0.66222018    0.52639997    -0.14440000
opls_716-118    C    0.70594039    0.66222018    0.47432986    -0.14500000
opls_543-119    C    0.72942046    0.60401008    0.45762989    0.22280000
opls_543-120    C    0.73923947    0.60398998    0.54255009    0.23460000
opls_716-121    C    0.80753068    0.45895013    0.66202002    -0.13840000
opls_543-122    C    0.77581063    0.53209994    0.61005002    0.24160000
opls_700-123    C    0.75569973    0.58804011    0.59548989    -0.05290000
opls_716-124    C    0.78427015    0.51587994    0.33766016    -0.13880000
opls_543-125    C    0.75794022    0.44263003    0.38978987    0.24170000
opls_700-126    C    0.73455021    0.58809999    0.40445012    -0.05820000
opls_700-127    C    0.74991978    0.34324986    0.63808010    0.08220000
opls_145-128    C    0.70455978    0.63135991    0.36213007    0.07240000
opls_145-129    C    0.86901036    0.29645982    0.63615997    -0.07590000
opls_145-130    C    0.87074983    0.25787003    0.67785984    -0.11310000
opls_145-131    C    0.75626970    0.26570006    0.72240992    0.22410000
opls_145-132    C    0.63620947    0.31232007    0.72429986    -0.13630000
opls_145-133    C    0.63193960    0.35033986    0.68231990    -0.09470000
opls_145-134    C    0.60328051    0.35570982    0.30958995    -0.07960000
opls_145-135    C    0.65166066    0.31771013    0.26644988    -0.10420000
opls_145-136    C    0.76543008    0.26868993    0.27403983    0.23580000
opls_145-137    C    0.84085932    0.25589996    0.32805988    -0.11210000
opls_145-138    C    0.79476047    0.29647992    0.35930012    -0.16250000
opls_145-139    C    0.65622045    0.01658982    0.96586982    -0.13630000
opls_916-140    C    0.77517029    0.92821006    0.00003019    0.19520000
opls_145-141    C    0.89546977    0.95806980    0.03409998    -0.13650000
opls_916-142    C    0.79126041    0.83384009    0.04650995    0.19710000
opls_916-143    C    0.73852032    0.84011006    0.94868991    0.19680000
opls_145-144    C    0.81743977    0.77562999    0.04231012    -0.13630000
opls_145-145    C    0.81433939    0.74141004    0.08705011    -0.07740000
opls_700-146    C    0.78914940    0.76467984    0.13727995    0.07840000
opls_145-147    C    0.76890059    0.82277016    0.14273006    -0.07580000
opls_145-148    C    0.76905961    0.85709984    0.09752007    -0.13660000
opls_145-149    C    0.85319044    0.85064015    0.90439013    -0.13610000
opls_145-150    C    0.82670992    0.82050986    0.85726000    -0.07600000
opls_700-151    C    0.68518070    0.77969997    0.85415990    0.07120000
opls_145-152    C    0.56779019    0.77040997    0.89772985    -0.11100000
opls_145-153    C    0.59337987    0.80052979    0.94458981    -0.13630000
opls_142-154    C    0.66579036    0.74269997    0.80811995    0.09880000
opls_142-155    C    0.76726948    0.72646991    0.18217011    0.03990000
opls_542-156    N    0.24652950    0.90549015    0.49998014    -0.31830000
opls_750-157    N    0.30475963    0.73379989    0.23296014    -0.23870000
opls_239-158    N    0.27462002    0.60719009    0.99874017    -0.12410000
opls_750-159    N    0.26833061    0.72706001    0.76584996    -0.28810000
opls_542-160    N    0.24638032    0.06937007    0.50000000    -0.31830000
opls_750-161    N    0.30424032    0.24104987    0.23297007    -0.23870000
opls_239-162    N    0.27441032    0.36766008    0.99875010    -0.12410000
opls_750-163    N    0.26821943    0.24779979    0.76584996    -0.28800000
opls_542-164    N    0.26163026    0.98742990    0.57724999    -0.31840000
opls_542-165    N    0.24990008    0.98743995    0.42271981    -0.31830000
opls_542-166    N    0.74637047    0.40547005    0.50000000    -0.31840000
opls_750-167    N    0.80424032    0.23378983    0.23297007    -0.23910000
opls_239-168    N    0.77440047    0.10718004    0.99875010    -0.12410000
opls_750-169    N    0.76823069    0.22704996    0.76584996    -0.28810000
opls_542-170    N    0.74653935    0.56936002    0.49998014    -0.31840000
opls_750-171    N    0.80474977    0.74104987    0.23296014    -0.23870000
opls_239-172    N    0.77462987    0.86766008    0.99874017    -0.12400000
opls_750-173    N    0.76833061    0.74779979    0.76584002    -0.28790000
opls_542-174    N    0.76162041    0.48741985    0.57724999    -0.31830000
opls_542-175    N    0.74990008    0.48740980    0.42271981    -0.31830000
F2_Co4+2-176    Co    0.25053057    0.98742990    0.49999007    0.80720000
F2_Co4+2-177    Co    0.75053057    0.48741985    0.49989988    0.80730000
opls_547-178    H    0.19705021    0.77161991    0.54920004    0.04920000
opls_547-179    H    0.18537069    0.77162996    0.45186988    0.04920000
opls_547-180    H    0.33115008    0.03976999    0.70066984    0.04920000
opls_547-181    H    0.30380967    0.93509986    0.29882003    0.04920000
opls_146-182    H    0.46504025    0.18507997    0.60043981    0.04920000
opls_146-183    H    0.46615064    0.25529980    0.67576013    0.04920000
opls_146-184    H    0.04158973    0.15563988    0.76029019    0.04920000
opls_146-185    H    0.03140059    0.08733986    0.68413991    0.04920000
opls_146-186    H    0.99808039    0.08385998    0.30260984    0.04930000
opls_146-187    H    0.09861940    0.14848999    0.22449017    0.04920000
opls_146-188    H    0.42304943    0.25926005    0.33517984    0.04920000
opls_146-189    H    0.34355016    0.17859013    0.40245013    0.04920000
opls_146-190    H    0.05883951    0.43440004    0.93787987    0.04920000
opls_146-191    H    0.49405961    0.54030020    0.06201008    0.04920000
opls_146-192    H    0.34174032    0.71914999    0.00172983    0.04920000
opls_146-193    H    0.33245046    0.78064019    0.08264012    0.04920000
opls_146-194    H    0.25230945    0.63277004    0.18389001    0.04920000
opls_146-195    H    0.25094995    0.57059006    0.10236988    0.04920000
opls_146-196    H    0.46828980    0.59104003    0.90674014    0.04920000
opls_146-197    H    0.42022067    0.64569989    0.82138013    0.04920000
opls_146-198    H    0.95018999    0.73679017    0.89510014    0.04920000
opls_146-199    H    0.99601019    0.68178018    0.97988010    0.04920000
opls_144-200    H    0.05689034    0.76720986    0.80852996    0.02910000
opls_144-201    H    0.21572000    0.79246020    0.17265009    0.02920000
opls_547-202    H    0.19671949    0.20322985    0.54924017    0.04920000
opls_547-203    H    0.18486968    0.20323990    0.45191994    0.04920000
opls_547-204    H    0.33115993    0.93508018    0.70066984    0.04920000
opls_547-205    H    0.30362953    0.03981983    0.29882003    0.04920000
opls_146-206    H    0.46505995    0.78976015    0.60041001    0.04920000
opls_146-207    H    0.46619990    0.71952985    0.67575020    0.04920000
opls_146-208    H    0.04168965    0.81921993    0.76027986    0.04920000
opls_146-209    H    0.03142029    0.88748979    0.68411011    0.04920000
opls_146-210    H    0.00069945    0.89219007    0.30671988    0.04920000
opls_146-211    H    0.09907960    0.82633003    0.22446991    0.04920000
opls_146-212    H    0.42359970    0.71562991    0.33517984    0.04920000
opls_146-213    H    0.37047962    0.77933016    0.39582004    0.04920000
opls_146-214    H    0.05893943    0.54048992    0.93789020    0.04920000
opls_146-215    H    0.49395969    0.43452987    0.06201008    0.04920000
opls_146-216    H    0.34109998    0.25568008    0.00172983    0.04920000
opls_146-217    H    0.33162998    0.19417983    0.08263018    0.04920000
opls_146-218    H    0.25212931    0.34209019    0.18389994    0.04920000
opls_146-219    H    0.25097951    0.40427016    0.10237981    0.04920000
opls_146-220    H    0.46828980    0.38376994    0.90676994    0.04920000
opls_146-221    H    0.42024037    0.32911008    0.82140993    0.04920000
opls_146-222    H    0.94982971    0.23813999    0.89506001    0.04920000
opls_146-223    H    0.99509964    0.29292005    0.97969019    0.04930000
opls_144-224    H    0.05669050    0.20767005    0.80851010    0.02910000
opls_144-225    H    0.21513032    0.18238997    0.17266002    0.02910000
opls_547-226    H    0.69674060    0.27161991    0.54924017    0.04920000
opls_547-227    H    0.68486968    0.27160986    0.45191994    0.04920000
opls_547-228    H    0.83116978    0.53976999    0.70066984    0.04920000
opls_547-229    H    0.80361968    0.43502992    0.29882003    0.04920000
opls_146-230    H    0.96505010    0.68509002    0.60041001    0.04920000
opls_146-231    H    0.96619990    0.75531991    0.67575020    0.04920000
opls_146-232    H    0.54168965    0.65562982    0.76027986    0.04920000
opls_146-233    H    0.53143014    0.58735996    0.68412998    0.04920000
opls_146-234    H    0.49857014    0.58383988    0.30256018    0.04920000
opls_146-235    H    0.59909930    0.64850004    0.22446991    0.04930000
opls_146-236    H    0.92360955    0.75921984    0.33517984    0.04930000
opls_146-237    H    0.84403006    0.67855997    0.40242987    0.04920000
opls_146-238    H    0.55893943    0.93435020    0.93789020    0.04920000
opls_146-239    H    0.99397940    0.04031989    0.06201008    0.04920000
opls_146-240    H    0.84109013    0.21917009    0.00172983    0.04920000
opls_146-241    H    0.83162998    0.28065987    0.08264012    0.04920000
opls_146-242    H    0.75214057    0.13275999    0.18389994    0.04920000
opls_146-243    H    0.75094995    0.07058001    0.10237981    0.04920000
opls_146-244    H    0.96827995    0.09107981    0.90676994    0.04920000
opls_146-245    H    0.92023052    0.14574010    0.82140993    0.04920000
opls_146-246    H    0.44981001    0.23671018    0.89506001    0.04920000
opls_146-247    H    0.49508979    0.18193012    0.97969019    0.04920000
opls_144-248    H    0.55668065    0.26718013    0.80851010    0.02910000
opls_144-249    H    0.71512047    0.29245015    0.17266002    0.02920000
opls_547-250    H    0.69703051    0.70322985    0.54920004    0.04920000
opls_547-251    H    0.68534958    0.70321979    0.45186988    0.04920000
opls_547-252    H    0.82720952    0.42593007    0.69425986    0.04920000
opls_547-253    H    0.80384063    0.53974989    0.29882996    0.04920000
opls_146-254    H    0.96505010    0.28977020    0.60043981    0.04920000
opls_146-255    H    0.96615064    0.21954995    0.67576013    0.04920000
opls_146-256    H    0.54160943    0.31921993    0.76029019    0.04920000
opls_146-257    H    0.53135977    0.38748979    0.68413991    0.04920000
opls_146-258    H    0.50018999    0.39216997    0.30676000    0.04920000
opls_146-259    H    0.59863066    0.32635013    0.22450010    0.04930000
opls_146-260    H    0.92303957    0.21559012    0.33519017    0.04920000
opls_146-261    H    0.87003068    0.27930000    0.39582997    0.04920000
opls_146-262    H    0.55883951    0.04045013    0.93787987    0.04920000
opls_146-263    H    0.99359941    0.93420990    0.06188017    0.04920000
opls_146-264    H    0.84174032    0.75570018    0.00172983    0.04920000
opls_146-265    H    0.83245046    0.69419993    0.08264012    0.04920000
opls_146-266    H    0.75231930    0.84208013    0.18389001    0.04920000
opls_146-267    H    0.75097951    0.90426011    0.10236988    0.04920000
opls_146-268    H    0.96828980    0.88381015    0.90671988    0.04920000
opls_146-269    H    0.92022067    0.82913981    0.82138013    0.04920000
opls_146-270    H    0.45022940    0.73803990    0.89508981    0.04920000
opls_146-271    H    0.49548947    0.79285011    0.97972992    0.04920000
opls_144-272    H    0.55693960    0.70762984    0.80852996    0.02910000
opls_144-273    H    0.71572985    0.68237992    0.17265009    0.02910000
