#======================================================================
# Crystal Data Generated By AuToFF
#----------------------------------------------------------------------

data_AuToFF_phase_1

_cell_length_a                         32.6385
_cell_length_b                         32.6385
_cell_length_c                         16.9712
_cell_angle_alpha                      90.00
_cell_angle_beta                       90.00
_cell_angle_gamma                      90.00
_symmetry_space_group_name_H-M_alt     'P 1'
_symmetry_space_group_IT_number        1

loop_
_space_group_symop_operation_xyz
   'x, y, z'

loop_
   _atom_site_label
   _atom_site_type_symbol
   _atom_site_fract_x
   _atom_site_fract_y
   _atom_site_fract_z
   _atom_site_charge
opls_145-0    C    0.05262007    0.99223004    0.61080006    -0.08140000
opls_145-1    C    0.07774990    0.96867013    0.66197971    -0.08180000
opls_700-2    C    0.07866998    0.92540006    0.65930989    0.07660000
opls_145-3    C    0.05279991    0.90692985    0.60284011    -0.08180000
opls_145-4    C    0.02762014    0.93054001    0.55161980    -0.08160000
opls_700-5    C    0.02681006    0.97412013    0.55307992    0.07630000
opls_145-6    C    0.10814988    0.85696003    0.71333023    -0.08160000
opls_145-7    C    0.13401014    0.83439987    0.76546974    -0.10550000
opls_145-8    C    0.15904990    0.85442989    0.82153000    0.05190000
opls_727-9    C    0.15707002    0.89766993    0.82314981    0.22920000
opls_145-10    C    0.13132007    0.91987990    0.77115997    -0.17140000
opls_700-11    C    0.10618012    0.90036000    0.71489995    0.07580000
opls_142-12    C    0.19235994    0.79320006    0.88450021    0.03460000
opls_145-13    C    0.25404997    0.70736002    0.00368978    -0.08420000
opls_166-14    C    0.27464988    0.77309006    0.05399972    0.22370000
opls_700-15    C    0.22139988    0.77307015    0.94398982    -0.03110000
opls_145-16    C    0.50906996    0.55415996    0.61272980    -0.08180000
opls_145-17    C    0.53274997    0.57935996    0.66357005    -0.08170000
opls_700-18    C    0.57605006    0.58014002    0.66068987    0.07600000
opls_145-19    C    0.59439987    0.55411002    0.60425014    -0.08180000
opls_145-20    C    0.57065000    0.52886989    0.55334979    -0.08140000
opls_700-21    C    0.52720989    0.52825988    0.55559006    0.08590000
opls_145-22    C    0.64463992    0.60928995    0.71456998    -0.08140000
opls_145-23    C    0.66734991    0.63511007    0.76650973    -0.10550000
opls_145-24    C    0.64748993    0.66048011    0.82226006    0.05480000
opls_727-25    C    0.60424008    0.65887005    0.82372018    0.23040000
opls_145-26    C    0.58186988    0.63314000    0.77192008    -0.17140000
opls_700-27    C    0.60123014    0.60767008    0.71601006    0.07590000
opls_142-28    C    0.70911010    0.69315992    0.88417024    0.03330000
opls_166-29    C    0.79478009    0.75469001    0.00057981    0.22370000
opls_145-30    C    0.72654013    0.77536008    0.05623998    -0.07550000
opls_700-31    C    0.72982000    0.72192013    0.94329983    -0.03190000
opls_182-32    C    0.63876005    0.17074008    0.13837973    -0.01890000
opls_182-33    C    0.66036000    0.20169003    0.08623020    -0.01870000
opls_182-34    C    0.71135009    0.09896012    0.17674001    -0.01830000
opls_182-35    C    0.66886009    0.11639996    0.19107017    -0.01830000
opls_182-36    C    0.78498001    0.14737993    0.05536026    -0.01830000
opls_182-37    C    0.76607994    0.11376013    0.10544982    -0.01830000
opls_145-38    C    0.94737993    0.00776996    0.61080006    -0.08140000
opls_145-39    C    0.92225010    0.03132987    0.66197971    -0.08170000
opls_700-40    C    0.92133002    0.07459994    0.65930989    0.07660000
opls_145-41    C    0.94720009    0.09307015    0.60284011    -0.08180000
opls_145-42    C    0.97237986    0.06945999    0.55161980    -0.08160000
opls_700-43    C    0.97318994    0.02587987    0.55307992    0.07610000
opls_145-44    C    0.89185012    0.14303997    0.71333023    -0.08160000
opls_145-45    C    0.86598986    0.16560013    0.76546974    -0.10550000
opls_145-46    C    0.84095010    0.14557011    0.82153000    0.05190000
opls_727-47    C    0.84292998    0.10233007    0.82314981    0.22920000
opls_145-48    C    0.86867993    0.08012010    0.77115997    -0.17140000
opls_700-49    C    0.89381988    0.09964000    0.71489995    0.07580000
opls_142-50    C    0.80764006    0.20679994    0.88450021    0.03460000
opls_145-51    C    0.74595003    0.29263998    0.00368978    -0.08420000
opls_166-52    C    0.72535012    0.22690994    0.05399972    0.22370000
opls_700-53    C    0.77860012    0.22692985    0.94398982    -0.03110000
opls_145-54    C    0.49093004    0.44584004    0.61272980    -0.08180000
opls_145-55    C    0.46725003    0.42064004    0.66357005    -0.08180000
opls_700-56    C    0.42394994    0.41985998    0.66068987    0.07600000
opls_145-57    C    0.40560013    0.44588998    0.60425014    -0.08180000
opls_145-58    C    0.42935000    0.47113011    0.55334979    -0.08140000
opls_700-59    C    0.47279011    0.47174012    0.55559006    0.08580000
opls_145-60    C    0.35536008    0.39071005    0.71456998    -0.08140000
opls_145-61    C    0.33265009    0.36488993    0.76650973    -0.10550000
opls_145-62    C    0.35251007    0.33951989    0.82226006    0.05480000
opls_727-63    C    0.39575992    0.34112995    0.82372018    0.23040000
opls_145-64    C    0.41813012    0.36686000    0.77192008    -0.17140000
opls_700-65    C    0.39876986    0.39232992    0.71601006    0.07580000
opls_142-66    C    0.29088990    0.30684008    0.88417024    0.03330000
opls_166-67    C    0.20521991    0.24530999    0.00057981    0.22380000
opls_145-68    C    0.27345987    0.22463992    0.05623998    -0.07550000
opls_700-69    C    0.27018000    0.27807987    0.94329983    -0.03190000
opls_182-70    C    0.36123995    0.82925992    0.13837973    -0.01890000
opls_182-71    C    0.33964000    0.79830997    0.08623020    -0.01870000
opls_182-72    C    0.28864991    0.90103988    0.17674001    -0.01830000
opls_182-73    C    0.33113991    0.88360004    0.19107017    -0.01830000
opls_182-74    C    0.21501999    0.85262007    0.05536026    -0.01830000
opls_182-75    C    0.23392006    0.88623987    0.10544982    -0.01830000
opls_145-76    C    0.99223004    0.94737993    0.38919994    -0.08140000
opls_145-77    C    0.96867013    0.92225010    0.33802029    -0.08180000
opls_700-78    C    0.92540006    0.92133002    0.34069011    0.07660000
opls_145-79    C    0.90692985    0.94720009    0.39715989    -0.08180000
opls_145-80    C    0.93054001    0.97237986    0.44838020    -0.08160000
opls_700-81    C    0.97412013    0.97318994    0.44692008    0.07610000
opls_145-82    C    0.85696003    0.89185012    0.28666977    -0.08160000
opls_145-83    C    0.83439987    0.86598986    0.23453026    -0.10550000
opls_145-84    C    0.85442989    0.84095010    0.17847000    0.05190000
opls_727-85    C    0.89766993    0.84292998    0.17685019    0.22920000
opls_145-86    C    0.91987990    0.86867993    0.22884003    -0.17140000
opls_700-87    C    0.90036000    0.89381988    0.28510005    0.07580000
opls_142-88    C    0.79320006    0.80764006    0.11549979    0.03460000
opls_145-89    C    0.70736002    0.74595003    0.99631022    -0.08420000
opls_166-90    C    0.77309006    0.72535012    0.94600028    0.22370000
opls_700-91    C    0.77307015    0.77860012    0.05601018    -0.03110000
opls_145-92    C    0.55415996    0.49093004    0.38727020    -0.08180000
opls_145-93    C    0.57935996    0.46725003    0.33642995    -0.08180000
opls_700-94    C    0.58014002    0.42394994    0.33931013    0.07600000
opls_145-95    C    0.55411002    0.40560013    0.39574986    -0.08170000
opls_145-96    C    0.52886989    0.42935000    0.44665021    -0.08140000
opls_700-97    C    0.52825988    0.47279011    0.44440994    0.08580000
opls_145-98    C    0.60928995    0.35536008    0.28543002    -0.08140000
opls_145-99    C    0.63511007    0.33265009    0.23349027    -0.10550000
opls_145-100    C    0.66048011    0.35251007    0.17773994    0.05480000
opls_727-101    C    0.65887005    0.39575992    0.17627982    0.23050000
opls_145-102    C    0.63314000    0.41813012    0.22807992    -0.17140000
opls_700-103    C    0.60767008    0.39876986    0.28398994    0.07580000
opls_142-104    C    0.69315992    0.29088990    0.11582976    0.03330000
opls_166-105    C    0.75469001    0.20521991    0.99942019    0.22370000
opls_145-106    C    0.77536008    0.27345987    0.94376002    -0.07550000
opls_700-107    C    0.72192013    0.27018000    0.05670017    -0.03190000
opls_182-108    C    0.17074008    0.36123995    0.86162027    -0.01890000
opls_182-109    C    0.20169003    0.33964000    0.91376980    -0.01860000
opls_182-110    C    0.09896012    0.28864991    0.82325999    -0.01830000
opls_182-111    C    0.11639996    0.33113991    0.80892983    -0.01830000
opls_182-112    C    0.14737993    0.21501999    0.94463974    -0.01830000
opls_182-113    C    0.11376013    0.23392006    0.89455018    -0.01830000
opls_145-114    C    0.00776996    0.05262007    0.38919994    -0.08140000
opls_145-115    C    0.03132987    0.07774990    0.33802029    -0.08170000
opls_700-116    C    0.07459994    0.07866998    0.34069011    0.07660000
opls_145-117    C    0.09307015    0.05279991    0.39715989    -0.08180000
opls_145-118    C    0.06945999    0.02762014    0.44838020    -0.08160000
opls_700-119    C    0.02587987    0.02681006    0.44692008    0.07620000
opls_145-120    C    0.14303997    0.10814988    0.28666977    -0.08160000
opls_145-121    C    0.16560013    0.13401014    0.23453026    -0.10550000
opls_145-122    C    0.14557011    0.15904990    0.17847000    0.05190000
opls_727-123    C    0.10233007    0.15707002    0.17685019    0.22930000
opls_145-124    C    0.08012010    0.13132007    0.22884003    -0.17130000
opls_700-125    C    0.09964000    0.10618012    0.28510005    0.07580000
opls_142-126    C    0.20679994    0.19235994    0.11549979    0.03460000
opls_145-127    C    0.29263998    0.25404997    0.99631022    -0.08420000
opls_166-128    C    0.22690994    0.27464988    0.94600028    0.22370000
opls_700-129    C    0.22692985    0.22139988    0.05601018    -0.03110000
opls_145-130    C    0.44584004    0.50906996    0.38727020    -0.08180000
opls_145-131    C    0.42064004    0.53274997    0.33642995    -0.08180000
opls_700-132    C    0.41985998    0.57605006    0.33931013    0.07600000
opls_145-133    C    0.44588998    0.59439987    0.39574986    -0.08180000
opls_145-134    C    0.47113011    0.57065000    0.44665021    -0.08140000
opls_700-135    C    0.47174012    0.52720989    0.44440994    0.08580000
opls_145-136    C    0.39071005    0.64463992    0.28543002    -0.08140000
opls_145-137    C    0.36488993    0.66734991    0.23349027    -0.10550000
opls_145-138    C    0.33951989    0.64748993    0.17773994    0.05480000
opls_727-139    C    0.34112995    0.60424008    0.17627982    0.23050000
opls_145-140    C    0.36686000    0.58186988    0.22807992    -0.17130000
opls_700-141    C    0.39232992    0.60123014    0.28398994    0.07580000
opls_142-142    C    0.30684008    0.70911010    0.11582976    0.03330000
opls_166-143    C    0.24530999    0.79478009    0.99942019    0.22380000
opls_145-144    C    0.22463992    0.72654013    0.94376002    -0.07540000
opls_700-145    C    0.27807987    0.72982000    0.05670017    -0.03190000
opls_182-146    C    0.82925992    0.63876005    0.86162027    -0.01890000
opls_182-147    C    0.79830997    0.66036000    0.91376980    -0.01870000
opls_182-148    C    0.90103988    0.71135009    0.82325999    -0.01830000
opls_182-149    C    0.88360004    0.66886009    0.80892983    -0.01830000
opls_182-150    C    0.85262007    0.78498001    0.94463974    -0.01830000
opls_182-151    C    0.88623987    0.76607994    0.89455018    -0.01830000
opls_701-152    C    0.50000000    0.50000000    0.50000000    0.03150000
opls_701-153    C    0.00000000    0.00000000    0.50000000    -0.00640000
opls_750-154    N    0.18634006    0.83290991    0.87686021    -0.20150000
opls_750-155    N    0.66930006    0.68765997    0.87745003    -0.20130000
opls_750-156    N    0.81365994    0.16709009    0.87686021    -0.20150000
opls_750-157    N    0.33069994    0.31234003    0.87745003    -0.20150000
opls_750-158    N    0.83290991    0.81365994    0.12313979    -0.20150000
opls_750-159    N    0.68765997    0.33069994    0.12254997    -0.20140000
opls_750-160    N    0.16709009    0.18634006    0.12313979    -0.20120000
opls_750-161    N    0.31234003    0.66930006    0.12254997    -0.20150000
opls_719-162    F    0.18026993    0.91871992    0.87559984    -0.12240000
opls_719-163    F    0.58330989    0.68242015    0.87580018    -0.09100000
opls_719-164    F    0.81973007    0.08128008    0.87559984    -0.12230000
opls_719-165    F    0.41669011    0.31757985    0.87580018    -0.09090000
opls_719-166    F    0.91871992    0.81973007    0.12440016    -0.12240000
opls_719-167    F    0.68242015    0.41669011    0.12419982    -0.09100000
opls_719-168    F    0.08128008    0.18026993    0.12440016    -0.12240000
opls_719-169    F    0.31757985    0.58330989    0.12419982    -0.09100000
opls_179-170    O    0.70264994    0.20277004    0.10590000    -0.17050000
opls_180-171    O    0.65265009    0.13135009    0.12054009    -0.13540000
opls_180-172    O    0.73868009    0.13060986    0.15954971    -0.11500000
opls_179-173    O    0.75581997    0.16245998    0.00029992    -0.17470000
opls_179-174    O    0.29735006    0.79722996    0.10590000    -0.17050000
opls_180-175    O    0.34734991    0.86864991    0.12054009    -0.13540000
opls_180-176    O    0.26131991    0.86939014    0.15954971    -0.11510000
opls_179-177    O    0.24418003    0.83754002    0.00029992    -0.17460000
opls_179-178    O    0.20277004    0.29735006    0.89410000    -0.17050000
opls_180-179    O    0.13135009    0.34734991    0.87945991    -0.13540000
opls_180-180    O    0.13060986    0.26131991    0.84045029    -0.11510000
opls_179-181    O    0.16245998    0.24418003    0.99970008    -0.17470000
opls_179-182    O    0.79722996    0.70264994    0.89410000    -0.17050000
opls_180-183    O    0.86864991    0.65265009    0.87945991    -0.13540000
opls_180-184    O    0.86939014    0.73868009    0.84045029    -0.11510000
opls_179-185    O    0.83754002    0.75581997    0.99970008    -0.17470000
opls_146-186    H    0.05265990    0.02709009    0.61512975    0.04840000
opls_146-187    H    0.09808999    0.98463011    0.70714976    0.04840000
opls_146-188    H    0.05168007    0.87213996    0.59733018    0.04840000
opls_146-189    H    0.00695007    0.91458002    0.50701011    0.04850000
opls_146-190    H    0.08825007    0.84009008    0.66865985    0.04840000
opls_146-191    H    0.13476998    0.79951989    0.76243990    0.04850000
opls_146-192    H    0.13044012    0.95476998    0.77392995    0.04850000
opls_144-193    H    0.17381988    0.77339001    0.84219973    0.02860000
opls_146-194    H    0.25566003    0.67246994    0.00337984    0.04840000
opls_146-195    H    0.47422002    0.55434012    0.61713020    0.04840000
opls_146-196    H    0.51688987    0.59985998    0.70859986    0.04840000
opls_146-197    H    0.62917996    0.55292002    0.59853988    0.04840000
opls_146-198    H    0.58648988    0.50814008    0.50869002    0.04850000
opls_146-199    H    0.66139008    0.58913002    0.67017005    0.04840000
opls_146-200    H    0.70223999    0.63558007    0.76360010    0.04840000
opls_146-201    H    0.54696999    0.63254990    0.77456986    0.04840000
opls_144-202    H    0.72850989    0.67444000    0.84147026    0.02870000
opls_146-203    H    0.70610996    0.79348009    0.09812977    0.04840000
opls_185-204    H    0.64557011    0.17788011    0.20282007    0.04410000
opls_185-205    H    0.60432005    0.17254010    0.12779002    0.04410000
opls_185-206    H    0.65669991    0.19241999    0.02184996    0.04410000
opls_185-207    H    0.64637989    0.23331005    0.09571981    0.04410000
opls_185-208    H    0.72213000    0.08205003    0.23173023    0.04410000
opls_185-209    H    0.71011995    0.07669991    0.12504007    0.04410000
opls_185-210    H    0.64803989    0.09130015    0.21512975    0.04410000
opls_185-211    H    0.67096987    0.14238001    0.23577001    0.04410000
opls_185-212    H    0.79547988    0.17351012    0.09510995    0.04410000
opls_185-213    H    0.81251007    0.13442009    0.02238027    0.04410000
opls_185-214    H    0.74911010    0.09127013    0.06574020    0.04410000
opls_185-215    H    0.79143986    0.09689998    0.13836028    0.04410000
opls_146-216    H    0.94734010    0.97290991    0.61512975    0.04840000
opls_146-217    H    0.90191001    0.01536989    0.70714976    0.04840000
opls_146-218    H    0.94831993    0.12786004    0.59733018    0.04840000
opls_146-219    H    0.99304993    0.08541998    0.50701011    0.04850000
opls_146-220    H    0.91174993    0.15990992    0.66865985    0.04840000
opls_146-221    H    0.86523002    0.20048011    0.76243990    0.04840000
opls_146-222    H    0.86955988    0.04523002    0.77392995    0.04840000
opls_144-223    H    0.82618012    0.22660999    0.84219973    0.02860000
opls_146-224    H    0.74433997    0.32753006    0.00337984    0.04840000
opls_146-225    H    0.52577998    0.44565988    0.61713020    0.04840000
opls_146-226    H    0.48311013    0.40014002    0.70859986    0.04840000
opls_146-227    H    0.37082004    0.44707998    0.59853988    0.04840000
opls_146-228    H    0.41351012    0.49185992    0.50869002    0.04840000
opls_146-229    H    0.33860992    0.41086998    0.67017005    0.04840000
opls_146-230    H    0.29776001    0.36441993    0.76360010    0.04840000
opls_146-231    H    0.45303001    0.36745010    0.77456986    0.04840000
opls_144-232    H    0.27149011    0.32556000    0.84147026    0.02860000
opls_146-233    H    0.29389004    0.20651991    0.09812977    0.04840000
opls_185-234    H    0.35442989    0.82211989    0.20282007    0.04410000
opls_185-235    H    0.39567995    0.82745990    0.12779002    0.04410000
opls_185-236    H    0.34330009    0.80758001    0.02184996    0.04410000
opls_185-237    H    0.35362011    0.76668995    0.09571981    0.04410000
opls_185-238    H    0.27787000    0.91794997    0.23173023    0.04420000
opls_185-239    H    0.28988005    0.92330009    0.12504007    0.04410000
opls_185-240    H    0.35196011    0.90869985    0.21512975    0.04410000
opls_185-241    H    0.32903013    0.85761999    0.23577001    0.04410000
opls_185-242    H    0.20452012    0.82648988    0.09510995    0.04410000
opls_185-243    H    0.18748993    0.86557991    0.02238027    0.04410000
opls_185-244    H    0.25088990    0.90872987    0.06574020    0.04410000
opls_185-245    H    0.20856014    0.90310002    0.13836028    0.04410000
opls_146-246    H    0.02709009    0.94734010    0.38487025    0.04840000
opls_146-247    H    0.98463011    0.90191001    0.29285024    0.04840000
opls_146-248    H    0.87213996    0.94831993    0.40266982    0.04840000
opls_146-249    H    0.91458002    0.99304993    0.49298989    0.04840000
opls_146-250    H    0.84009008    0.91174993    0.33134015    0.04850000
opls_146-251    H    0.79951989    0.86523002    0.23756010    0.04840000
opls_146-252    H    0.95476998    0.86955988    0.22607005    0.04840000
opls_144-253    H    0.77339001    0.82618012    0.15780027    0.02860000
opls_146-254    H    0.67246994    0.74433997    0.99662016    0.04840000
opls_146-255    H    0.55434012    0.52577998    0.38286980    0.04840000
opls_146-256    H    0.59985998    0.48311013    0.29140014    0.04840000
opls_146-257    H    0.55292002    0.37082004    0.40146012    0.04840000
opls_146-258    H    0.50814008    0.41351012    0.49130998    0.04840000
opls_146-259    H    0.58913002    0.33860992    0.32982995    0.04840000
opls_146-260    H    0.63558007    0.29776001    0.23639990    0.04840000
opls_146-261    H    0.63254990    0.45303001    0.22543014    0.04840000
opls_144-262    H    0.67444000    0.27149011    0.15852974    0.02860000
opls_146-263    H    0.79348009    0.29389004    0.90187023    0.04840000
opls_185-264    H    0.17788011    0.35442989    0.79717993    0.04410000
opls_185-265    H    0.17254010    0.39567995    0.87220998    0.04410000
opls_185-266    H    0.19241999    0.34330009    0.97815004    0.04410000
opls_185-267    H    0.23331005    0.35362011    0.90428019    0.04420000
opls_185-268    H    0.08205003    0.27787000    0.76826977    0.04410000
opls_185-269    H    0.07669991    0.28988005    0.87495993    0.04410000
opls_185-270    H    0.09130015    0.35196011    0.78487025    0.04410000
opls_185-271    H    0.14238001    0.32903013    0.76422999    0.04410000
opls_185-272    H    0.17351012    0.20452012    0.90489005    0.04410000
opls_185-273    H    0.13442009    0.18748993    0.97761973    0.04410000
opls_185-274    H    0.09127013    0.25088990    0.93425980    0.04410000
opls_185-275    H    0.09689998    0.20856014    0.86163972    0.04410000
opls_146-276    H    0.97290991    0.05265990    0.38487025    0.04850000
opls_146-277    H    0.01536989    0.09808999    0.29285024    0.04850000
opls_146-278    H    0.12786004    0.05168007    0.40266982    0.04840000
opls_146-279    H    0.08541998    0.00695007    0.49298989    0.04840000
opls_146-280    H    0.15990992    0.08825007    0.33134015    0.04840000
opls_146-281    H    0.20048011    0.13476998    0.23756010    0.04840000
opls_146-282    H    0.04523002    0.13044012    0.22607005    0.04840000
opls_144-283    H    0.22660999    0.17381988    0.15780027    0.02860000
opls_146-284    H    0.32753006    0.25566003    0.99662016    0.04840000
opls_146-285    H    0.44565988    0.47422002    0.38286980    0.04840000
opls_146-286    H    0.40014002    0.51688987    0.29140014    0.04840000
opls_146-287    H    0.44707998    0.62917996    0.40146012    0.04850000
opls_146-288    H    0.49185992    0.58648988    0.49130998    0.04840000
opls_146-289    H    0.41086998    0.66139008    0.32982995    0.04840000
opls_146-290    H    0.36441993    0.70223999    0.23639990    0.04840000
opls_146-291    H    0.36745010    0.54696999    0.22543014    0.04840000
opls_144-292    H    0.32556000    0.72850989    0.15852974    0.02860000
opls_146-293    H    0.20651991    0.70610996    0.90187023    0.04840000
opls_185-294    H    0.82211989    0.64557011    0.79717993    0.04420000
opls_185-295    H    0.82745990    0.60432005    0.87220998    0.04410000
opls_185-296    H    0.80758001    0.65669991    0.97815004    0.04410000
opls_185-297    H    0.76668995    0.64637989    0.90428019    0.04410000
opls_185-298    H    0.91794997    0.72213000    0.76826977    0.04410000
opls_185-299    H    0.92330009    0.71011995    0.87495993    0.04410000
opls_185-300    H    0.90869985    0.64803989    0.78487025    0.04410000
opls_185-301    H    0.85761999    0.67096987    0.76422999    0.04410000
opls_185-302    H    0.82648988    0.79547988    0.90489005    0.04410000
opls_185-303    H    0.86557991    0.81251007    0.97761973    0.04410000
opls_185-304    H    0.90872987    0.74911010    0.93425980    0.04410000
opls_185-305    H    0.90310002    0.79143986    0.86163972    0.04410000
