#======================================================================
# Crystal Data Generated By AuToFF
#----------------------------------------------------------------------

data_AuToFF_phase_1

_cell_length_a                         37.2100
_cell_length_b                         37.2100
_cell_length_c                         3.7700
_cell_angle_alpha                      90.00
_cell_angle_beta                       90.00
_cell_angle_gamma                      120.00
_symmetry_space_group_name_H-M_alt     'P 1'
_symmetry_space_group_IT_number        1

loop_
_space_group_symop_operation_xyz
   'x, y, z'

loop_
   _atom_site_label
   _atom_site_type_symbol
   _atom_site_fract_x
   _atom_site_fract_y
   _atom_site_fract_z
   _atom_site_charge
opls_700-0    C    0.39184990    0.82447003    0.00636870    -0.00180000
opls_523-1    C    0.36893010    0.78065999    0.01041910    -0.17000000
opls_700-2    C    0.38373008    0.75677002    0.84223077    0.07150000
opls_523-3    C    0.42322985    0.77739977    0.68377984    -0.11780000
opls_522-4    C    0.44733979    0.82053983    0.69689125    -0.14690000
opls_521-5    C    0.43202981    0.84403973    0.85502122    0.19280000
opls_700-6    C    0.35787984    0.71047991    0.83438992    0.07200000
opls_145-7    C    0.37655005    0.68569993    0.83271088    -0.16370000
opls_521-8    C    0.44350010    0.91103997    0.00648011    0.19570000
opls_700-9    C    0.48454007    0.52787992    0.00440053    0.03780000
opls_523-10    C    0.52752984    0.54278986    0.99894960    -0.12410000
opls_523-11    C    0.54272010    0.51519993    0.99968966    -0.12190000
opls_700-12    C    0.47275995    0.62283998    0.15538992    -0.08700000
opls_522-13    C    0.48936979    0.59616985    0.15688064    -0.20000000
opls_470-14    C    0.49912990    0.66531005    0.30555968    0.59650000
opls_700-15    C    0.17553005    0.56737992    0.00636870    -0.00180000
opls_523-16    C    0.21934007    0.58827003    0.01041910    -0.17000000
opls_700-17    C    0.24322996    0.62695979    0.84223077    0.07150000
opls_523-18    C    0.22260005    0.64583003    0.68377984    -0.11780000
opls_522-19    C    0.17945992    0.62679997    0.69689125    -0.14690000
opls_521-20    C    0.15595997    0.58798981    0.85502122    0.19280000
opls_700-21    C    0.28951991    0.64739994    0.83438992    0.07200000
opls_145-22    C    0.31430003    0.69085000    0.83271088    -0.16370000
opls_521-23    C    0.08895988    0.53245993    0.00648011    0.19570000
opls_700-24    C    0.47212001    0.95665979    0.00440053    0.03780000
opls_523-25    C    0.45720995    0.98473971    0.99894960    -0.12410000
opls_523-26    C    0.48480009    0.02752010    0.99968966    -0.12190000
opls_700-27    C    0.37715994    0.84991998    0.15538992    -0.08700000
opls_522-28    C    0.40383004    0.89319999    0.15688064    -0.20000000
opls_470-29    C    0.33468988    0.83381997    0.30555968    0.59650000
opls_700-30    C    0.43262004    0.60815006    0.00636870    -0.00180000
opls_523-31    C    0.41173010    0.63106997    0.01041910    -0.17000000
opls_700-32    C    0.37304008    0.61626989    0.84223077    0.07150000
opls_523-33    C    0.35416995    0.57676989    0.68377984    -0.11780000
opls_522-34    C    0.37319987    0.55265989    0.69689125    -0.14690000
opls_521-35    C    0.41200991    0.56796983    0.85502122    0.19280000
opls_700-36    C    0.35259983    0.64211984    0.83438992    0.07200000
opls_145-37    C    0.30914976    0.62344976    0.83271088    -0.16370000
opls_521-38    C    0.46753987    0.55649979    0.00648011    0.19570000
opls_700-39    C    0.04334004    0.51545998    0.00440053    0.03780000
opls_523-40    C    0.01525990    0.47246981    0.99894960    -0.12410000
opls_523-41    C    0.97248008    0.45727997    0.99968966    -0.12190000
opls_700-42    C    0.15008011    0.52724004    0.15538992    -0.08700000
opls_522-43    C    0.10680001    0.51062985    0.15688064    -0.20000000
opls_470-44    C    0.16617995    0.50086998    0.30555968    0.59650000
opls_700-45    C    0.60815010    0.17552997    0.00636870    -0.00180000
opls_523-46    C    0.63106990    0.21934001    0.01041910    -0.17000000
opls_700-47    C    0.61626992    0.24322998    0.84223077    0.07150000
opls_523-48    C    0.57676999    0.22259992    0.68377984    -0.11780000
opls_522-49    C    0.55266006    0.17945986    0.69689125    -0.14690000
opls_521-50    C    0.56797004    0.15595996    0.85502122    0.19280000
opls_700-51    C    0.64212016    0.28952009    0.83438992    0.07200000
opls_145-52    C    0.62344995    0.31430007    0.83271088    -0.16370000
opls_521-53    C    0.55649990    0.08896003    0.00648011    0.19570000
opls_700-54    C    0.51545993    0.47212008    0.00440053    0.03780000
opls_523-55    C    0.47247001    0.45720983    0.99894960    -0.12410000
opls_523-56    C    0.45727990    0.48480007    0.99968966    -0.12190000
opls_700-57    C    0.52724005    0.37716002    0.15538992    -0.08700000
opls_522-58    C    0.51063005    0.40382984    0.15688064    -0.20000000
opls_470-59    C    0.50087010    0.33468995    0.30555968    0.59650000
opls_700-60    C    0.82446995    0.43262008    0.00636870    -0.00180000
opls_523-61    C    0.78065993    0.41172997    0.01041910    -0.17000000
opls_700-62    C    0.75676988    0.37303990    0.84223077    0.07150000
opls_523-63    C    0.77739995    0.35416997    0.68377984    -0.11780000
opls_522-64    C    0.82054008    0.37320003    0.69689125    -0.14690000
opls_521-65    C    0.84403988    0.41200988    0.85502122    0.19280000
opls_700-66    C    0.71048009    0.35260006    0.83438992    0.07200000
opls_145-67    C    0.68569997    0.30915000    0.83271088    -0.16370000
opls_521-68    C    0.91104012    0.46754007    0.00648011    0.19570000
opls_700-69    C    0.52787984    0.04333990    0.00440053    0.03780000
opls_523-70    C    0.54278989    0.01525998    0.99894960    -0.12410000
opls_523-71    C    0.51519991    0.97247990    0.99968966    -0.12190000
opls_700-72    C    0.62284006    0.15008002    0.15538992    -0.08700000
opls_522-73    C    0.59616996    0.10680001    0.15688064    -0.20000000
opls_470-74    C    0.66531012    0.16618003    0.30555968    0.59650000
opls_700-75    C    0.56737996    0.39184994    0.00636870    -0.00180000
opls_523-76    C    0.58826990    0.36893003    0.01041910    -0.17000000
opls_700-77    C    0.62695977    0.38372980    0.84223077    0.07150000
opls_523-78    C    0.64582990    0.42322980    0.68377984    -0.11780000
opls_522-79    C    0.62679997    0.44733980    0.69689125    -0.14690000
opls_521-80    C    0.58798993    0.43202986    0.85502122    0.19280000
opls_700-81    C    0.64740001    0.35787984    0.83438992    0.07200000
opls_145-82    C    0.69085008    0.37654993    0.83271088    -0.16370000
opls_521-83    C    0.53245997    0.44349990    0.00648011    0.19570000
opls_700-84    C    0.95665996    0.48454002    0.00440053    0.03780000
opls_523-85    C    0.98473994    0.52752988    0.99894960    -0.12410000
opls_523-86    C    0.02751992    0.54272003    0.99968966    -0.12190000
opls_700-87    C    0.84991989    0.47275996    0.15538992    -0.08700000
opls_522-88    C    0.89319983    0.48936984    0.15688064    -0.20000000
opls_470-89    C    0.83382005    0.49913002    0.30555968    0.59650000
opls_520-90    N    0.42967007    0.54375992    0.86120955    -0.28510000
opls_520-91    N    0.45623985    0.88590996    0.86120955    -0.28510000
opls_520-92    N    0.11408993    0.57032982    0.86120955    -0.28510000
opls_520-93    N    0.57032993    0.45624008    0.86120955    -0.28510000
opls_520-94    N    0.54376015    0.11409004    0.86120955    -0.28510000
opls_520-95    N    0.88590992    0.42966987    0.86120955    -0.28500000
opls_269-96    O    0.49364998    0.69397989    0.22797878    -0.43140000
opls_268-97    O    0.53156990    0.67301995    0.53294960    -0.48330000
opls_269-98    O    0.30601984    0.79966988    0.22797878    -0.43140000
opls_268-99    O    0.32697991    0.85854998    0.53294960    -0.48330000
opls_269-100    O    0.20033003    0.50634992    0.22797878    -0.43140000
opls_268-101    O    0.14144992    0.46843007    0.53294960    -0.48330000
opls_269-102    O    0.50634986    0.30601980    0.22797878    -0.43140000
opls_268-103    O    0.46843010    0.32698005    0.53294960    -0.48290000
opls_269-104    O    0.69398016    0.20033012    0.22797878    -0.43140000
opls_268-105    O    0.67302009    0.14145002    0.53294960    -0.48320000
opls_269-106    O    0.79966997    0.49365008    0.22797878    -0.43140000
opls_268-107    O    0.85855008    0.53156993    0.53294960    -0.48330000
opls_526-108    H    0.34041986    0.76456991    0.15758090    0.12170000
opls_526-109    H    0.43543991    0.76046003    0.54289125    0.12050000
opls_525-110    H    0.47780995    0.83606979    0.57588064    0.12050000
opls_146-111    H    0.40997992    0.70043982    0.83202918    0.12490000
opls_526-112    H    0.54957005    0.57570983    0.98788064    0.12190000
opls_526-113    H    0.57595992    0.52748984    0.99800000    0.12020000
opls_525-114    H    0.51926993    0.60646998    0.27893103    0.12540000
opls_270-115    H    0.54581992    0.70292982    0.61567109    0.31150000
opls_526-116    H    0.23542987    0.57584979    0.15758090    0.12170000
opls_526-117    H    0.23953995    0.67497993    0.54289125    0.12050000
opls_525-118    H    0.16392994    0.64174001    0.57588064    0.12050000
opls_146-119    H    0.29956008    0.70953995    0.83202918    0.12490000
opls_526-120    H    0.42429006    0.97385989    0.98788064    0.12190000
opls_526-121    H    0.47250998    0.04847011    0.99800000    0.12020000
opls_525-122    H    0.39352997    0.91279980    0.27893103    0.12540000
opls_270-123    H    0.29707010    0.84289000    0.61567109    0.31150000
opls_526-124    H    0.42415012    0.65957999    0.15758090    0.12170000
opls_526-125    H    0.32502014    0.56456004    0.54289125    0.12050000
opls_525-126    H    0.35825995    0.52218989    0.57588064    0.12050000
opls_146-127    H    0.29045984    0.59001993    0.83202918    0.12490000
opls_526-128    H    0.02614000    0.45042996    0.98788064    0.12190000
opls_526-129    H    0.95153010    0.42404005    0.99800000    0.12020000
opls_525-130    H    0.08719995    0.48072991    0.27893103    0.12540000
opls_270-131    H    0.15710982    0.45417987    0.61567109    0.31150000
opls_526-132    H    0.65958014    0.23543009    0.15758090    0.12170000
opls_526-133    H    0.56456009    0.23953997    0.54289125    0.12050000
opls_525-134    H    0.52218989    0.16392990    0.57588064    0.12050000
opls_146-135    H    0.59001993    0.29955987    0.83202918    0.12490000
opls_526-136    H    0.45042980    0.42428986    0.98788064    0.12190000
opls_526-137    H    0.42403993    0.47250985    0.99800000    0.12020000
opls_525-138    H    0.48073007    0.39353002    0.27893103    0.12540000
opls_270-139    H    0.45417992    0.29706987    0.61567109    0.31150000
opls_526-140    H    0.76456998    0.42414990    0.15758090    0.12170000
opls_526-141    H    0.76046005    0.32502007    0.54289125    0.12050000
opls_525-142    H    0.83607006    0.35825999    0.57588064    0.12050000
opls_146-143    H    0.70043992    0.29046005    0.83202918    0.12490000
opls_526-144    H    0.57570994    0.02614011    0.98788064    0.12190000
opls_526-145    H    0.52749002    0.95152989    0.99800000    0.12020000
opls_525-146    H    0.60646987    0.08719989    0.27893103    0.12540000
opls_270-147    H    0.70292990    0.15711000    0.61567109    0.31150000
opls_526-148    H    0.57584988    0.34042001    0.15758090    0.12170000
opls_526-149    H    0.67497986    0.43543996    0.54289125    0.12050000
opls_525-150    H    0.64173989    0.47780980    0.57588064    0.12050000
opls_146-151    H    0.70954016    0.40998007    0.83202918    0.12490000
opls_526-152    H    0.97386000    0.54957004    0.98788064    0.12190000
opls_526-153    H    0.04846990    0.57595995    0.99800000    0.12020000
opls_525-154    H    0.91279990    0.51926978    0.27893103    0.12540000
opls_270-155    H    0.84289002    0.54581982    0.61567109    0.31150000
