#======================================================================
# Crystal Data Generated By AuToFF
#----------------------------------------------------------------------

data_AuToFF_phase_1

_cell_length_a                         21.4916
_cell_length_b                         21.4916
_cell_length_c                         4.0168
_cell_angle_alpha                      90.00
_cell_angle_beta                       90.00
_cell_angle_gamma                      120.00
_symmetry_space_group_name_H-M_alt     'P 1'
_symmetry_space_group_IT_number        1

loop_
_space_group_symop_operation_xyz
   'x, y, z'

loop_
   _atom_site_label
   _atom_site_type_symbol
   _atom_site_fract_x
   _atom_site_fract_y
   _atom_site_fract_z
   _atom_site_charge
opls_702-0    H    0.66837993    0.63862011    0.71785003    0.12250000
opls_702-1    H    0.36139022    0.02977015    0.71785003    0.12250000
opls_702-2    H    0.97022984    0.33161995    0.71785003    0.12250000
opls_702-3    H    0.33162006    0.36139009    0.71785003    0.12250000
opls_702-4    H    0.63862002    0.97022985    0.71785003    0.12310000
opls_702-5    H    0.02977016    0.66838005    0.71785003    0.12250000
opls_702-6    H    0.33162006    0.36139009    0.28214997    0.12250000
opls_702-7    H    0.63862002    0.97022985    0.28214997    0.12310000
opls_702-8    H    0.02977016    0.66838005    0.28214997    0.12250000
opls_702-9    H    0.66837993    0.63862011    0.28214997    0.12250000
opls_702-10    H    0.36139022    0.02977015    0.28214997    0.12250000
opls_702-11    H    0.97022984    0.33161995    0.28214997    0.12250000
opls_702-12    H    0.37038022    0.31734012    0.50000000    0.14460000
opls_146-13    H    0.26797013    0.53590024    0.50000000    0.24870000
opls_702-14    H    0.68266021    0.05304028    0.50000000    0.14460000
opls_146-15    H    0.46409997    0.73207030    0.50000000    0.24870000
opls_702-16    H    0.94695984    0.62962014    0.50000000    0.14460000
opls_146-17    H    0.26793015    0.73204021    0.50000000    0.24870000
opls_702-18    H    0.62961978    0.68265988    0.50000000    0.14460000
opls_146-19    H    0.73204038    0.46410030    0.50000000    0.24870000
opls_702-20    H    0.31734006    0.94696026    0.50000000    0.14460000
opls_146-21    H    0.53590030    0.26793024    0.50000000    0.24870000
opls_702-22    H    0.05304016    0.37037986    0.50000000    0.14460000
opls_146-23    H    0.73206983    0.26797000    0.50000000    0.24870000
opls_166-24    C    0.56487986    0.06428018    0.50000000    0.10950000
opls_166-25    C    0.93569003    0.43521988    0.50000000    0.10940000
opls_700-26    C    0.56759989    0.99991995    0.50000000    -0.04680000
opls_145-27    C    0.29558003    0.59114982    0.50000000    -0.04860000
opls_145-28    C    0.62853977    0.25705999    0.50000000    -0.25010000
opls_148-29    C    0.36274017    0.36394002    0.50000000    -0.41080000
opls_166-30    C    0.93571982    0.50059987    0.50000000    0.10960000
opls_166-31    C    0.56478014    0.50046985    0.50000000    0.10940000
opls_700-32    C    0.00008002    0.56767014    0.50000000    -0.04750000
opls_145-33    C    0.40885010    0.70444014    0.50000000    -0.04860000
opls_145-34    C    0.74294013    0.37148021    0.50000000    -0.25010000
opls_148-35    C    0.63606003    0.99880025    0.50000000    -0.41080000
opls_166-36    C    0.49939986    0.43511995    0.50000000    0.10960000
opls_166-37    C    0.49953029    0.06431026    0.50000000    0.10940000
opls_700-38    C    0.43233014    0.43240024    0.50000000    -0.04680000
opls_145-39    C    0.29556009    0.70442026    0.50000000    -0.04870000
opls_145-40    C    0.62852010    0.37145980    0.50000000    -0.25010000
opls_148-41    C    0.00120006    0.63726026    0.50000000    -0.41080000
opls_166-42    C    0.43512014    0.93571982    0.50000000    0.10950000
opls_166-43    C    0.06430969    0.56478979    0.50000000    0.10940000
opls_700-44    C    0.43240011    0.00008005    0.50000000    -0.04680000
opls_145-45    C    0.70441997    0.40885018    0.50000000    -0.04860000
opls_145-46    C    0.37146023    0.74294001    0.50000000    -0.25000000
opls_148-47    C    0.63725983    0.63605998    0.50000000    -0.41080000
opls_166-48    C    0.06428995    0.49940013    0.50000000    0.10920000
opls_166-49    C    0.43521986    0.49953015    0.50000000    0.10940000
opls_700-50    C    0.99991998    0.43232986    0.50000000    -0.04680000
opls_145-51    C    0.59114013    0.29555986    0.50000000    -0.04860000
opls_145-52    C    0.25705987    0.62851979    0.50000000    -0.25010000
opls_148-53    C    0.36393997    0.00119975    0.50000000    -0.41080000
opls_166-54    C    0.50060014    0.56488005    0.50000000    0.10950000
opls_166-55    C    0.50046998    0.93569027    0.50000000    0.10940000
opls_700-56    C    0.56767013    0.56760030    0.50000000    -0.04680000
opls_145-57    C    0.70444018    0.29558028    0.50000000    -0.04860000
opls_145-58    C    0.37147990    0.62854020    0.50000000    -0.25010000
opls_148-59    C    0.99880020    0.36274028    0.50000000    -0.41060000
opls_167-60    O    0.62085003    0.13224985    0.50000000    -0.34170000
opls_167-61    O    0.86776022    0.37921006    0.50000000    -0.34140000
opls_167-62    O    0.86775999    0.48860026    0.50000000    -0.34160000
opls_167-63    O    0.62079016    0.48855030    0.50000000    -0.34190000
opls_167-64    O    0.51139975    0.37914988    0.50000000    -0.34170000
opls_167-65    O    0.51144990    0.13224018    0.50000000    -0.34190000
opls_167-66    O    0.37914969    0.86775982    0.50000000    -0.34170000
opls_167-67    O    0.13223978    0.62078994    0.50000000    -0.34130000
opls_167-68    O    0.13225005    0.51140028    0.50000000    -0.34170000
opls_167-69    O    0.37921011    0.51145024    0.50000000    -0.34190000
opls_167-70    O    0.48860025    0.62085012    0.50000000    -0.34170000
opls_167-71    O    0.48855010    0.86775982    0.50000000    -0.34190000
MOF2_B_2-72    B    0.58852024    0.17699023    0.50000000    0.58240000
MOF2_B_2-73    B    0.82300996    0.41151993    0.50000000    0.58240000
MOF2_B_2-74    B    0.58847985    0.41148017    0.50000000    0.58240000
MOF2_B_2-75    B    0.41148003    0.82301030    0.50000000    0.58240000
MOF2_B_2-76    B    0.17699004    0.58848007    0.50000000    0.58240000
MOF2_B_2-77    B    0.41152015    0.58851983    0.50000000    0.58240000
