#======================================================================
# Crystal Data Generated By AuToFF
#----------------------------------------------------------------------

data_AuToFF_phase_1

_cell_length_a                         23.0910
_cell_length_b                         23.0910
_cell_length_c                         3.8265
_cell_angle_alpha                      90.00
_cell_angle_beta                       90.00
_cell_angle_gamma                      120.00
_symmetry_space_group_name_H-M_alt     'P 1'
_symmetry_space_group_IT_number        1

loop_
_space_group_symop_operation_xyz
   'x, y, z'

loop_
   _atom_site_label
   _atom_site_type_symbol
   _atom_site_fract_x
   _atom_site_fract_y
   _atom_site_fract_z
   _atom_site_charge
opls_238-0    N    0.14548020    0.55919998    0.91591010    -0.33570000
opls_238-1    N    0.44080013    0.58628001    0.91591010    -0.33580000
opls_238-2    N    0.41372010    0.85452001    0.91591010    -0.33580000
opls_238-3    N    0.85451980    0.44080002    0.91591010    -0.33570000
opls_238-4    N    0.55919987    0.41371999    0.91591010    -0.33570000
opls_238-5    N    0.58627990    0.14547999    0.91591010    -0.33580000
opls_916-6    C    0.07220026    0.52956011    0.93749118    0.20370000
opls_145-7    C    0.04209995    0.57109003    0.94045995    -0.15330000
opls_700-8    C    0.97075015    0.54249029    0.94798902    0.07200000
opls_142-9    C    0.80537010    0.37316020    0.03836927    0.07610000
opls_700-10    C    0.74042978    0.35549989    0.12187116    -0.05550000
opls_280-11    C    0.71749011    0.40624001    0.16719979    0.20000000
opls_148-12    C    0.94196982    0.59011001    0.97153012    -0.41720000
opls_916-13    C    0.47044016    0.54264031    0.93749118    0.20370000
opls_145-14    C    0.42890977    0.47100997    0.94045995    -0.15330000
opls_700-15    C    0.45751005    0.42825989    0.94798902    0.07200000
opls_142-16    C    0.62683987    0.43220990    0.03836927    0.07610000
opls_700-17    C    0.64450011    0.38493023    0.12187116    -0.05550000
opls_280-18    C    0.59376026    0.31125012    0.16719979    0.20000000
opls_148-19    C    0.40988994    0.35185992    0.97153012    -0.41720000
opls_916-20    C    0.45735983    0.92780008    0.93749118    0.20370000
opls_145-21    C    0.52898985    0.95790001    0.94045995    -0.15330000
opls_700-22    C    0.57173980    0.02924982    0.94798902    0.07200000
opls_142-23    C    0.56779003    0.19462990    0.03836927    0.07610000
opls_700-24    C    0.61507011    0.25956987    0.12187116    -0.05550000
opls_280-25    C    0.68875006    0.28250987    0.16719979    0.20000000
opls_148-26    C    0.64814024    0.05803007    0.97153012    -0.41720000
opls_916-27    C    0.92779974    0.47043989    0.93749118    0.20370000
opls_145-28    C    0.95790005    0.42890997    0.94045995    -0.15330000
opls_700-29    C    0.02925010    0.45751021    0.94798902    0.07200000
opls_142-30    C    0.19463015    0.62684030    0.03836927    0.07610000
opls_700-31    C    0.25957022    0.64450011    0.12187116    -0.05540000
opls_280-32    C    0.28250989    0.59375999    0.16719979    0.20000000
opls_148-33    C    0.05803018    0.40988999    0.97153012    -0.41720000
opls_916-34    C    0.52956009    0.45736019    0.93749118    0.20380000
opls_145-35    C    0.57109023    0.52899003    0.94045995    -0.15320000
opls_700-36    C    0.54248995    0.57174011    0.94798902    0.07200000
opls_142-37    C    0.37316013    0.56779010    0.03836927    0.07610000
opls_700-38    C    0.35550014    0.61507027    0.12187116    -0.05550000
opls_280-39    C    0.40623974    0.68874988    0.16719979    0.20000000
opls_148-40    C    0.59011006    0.64814008    0.97153012    -0.41720000
opls_916-41    C    0.54264017    0.07219992    0.93749118    0.20370000
opls_145-42    C    0.47101015    0.04209999    0.94045995    -0.15330000
opls_700-43    C    0.42826020    0.97075018    0.94798902    0.07200000
opls_142-44    C    0.43220997    0.80537010    0.03836927    0.07620000
opls_700-45    C    0.38492989    0.74043013    0.12187116    -0.05550000
opls_280-46    C    0.31124994    0.71749013    0.16719979    0.20010000
opls_148-47    C    0.35185976    0.94196993    0.97153012    -0.41700000
opls_146-48    H    0.07361002    0.62608020    0.92983928    0.13710000
opls_144-49    H    0.81864978    0.33312997    0.03755913    0.06640000
opls_910-50    H    0.16424024    0.52935008    0.80194956    0.27220000
opls_702-51    H    0.89528995    0.56757007    0.14075003    0.09040000
opls_702-52    H    0.92759009    0.59903017    0.70430942    0.11540000
opls_702-53    H    0.97968023    0.64034006    0.08811969    0.09030000
opls_146-54    H    0.37391999    0.44752990    0.92983928    0.13710000
opls_144-55    H    0.66686976    0.48551986    0.03755913    0.06640000
opls_910-56    H    0.47065007    0.63488985    0.80194956    0.27230000
opls_702-57    H    0.43243014    0.32772027    0.14075003    0.09030000
opls_702-58    H    0.40096999    0.32855988    0.70430942    0.11540000
opls_702-59    H    0.35966018    0.33934028    0.08811969    0.09030000
opls_146-60    H    0.55246999    0.92638989    0.92983928    0.13710000
opls_144-61    H    0.51448003    0.18135017    0.03755913    0.06640000
opls_910-62    H    0.36511012    0.83576007    0.80194956    0.27220000
opls_702-63    H    0.67228016    0.10471016    0.14075003    0.09030000
opls_702-64    H    0.67143991    0.07240995    0.70430942    0.11540000
opls_702-65    H    0.66066027    0.02032015    0.08811969    0.09040000
opls_146-66    H    0.92639023    0.37392030    0.92983928    0.13710000
opls_144-67    H    0.18135022    0.66687003    0.03755913    0.06640000
opls_910-68    H    0.83575976    0.47064992    0.80194956    0.27220000
opls_702-69    H    0.10471005    0.43242993    0.14075003    0.09030000
opls_702-70    H    0.07240991    0.40096983    0.70430942    0.11540000
opls_702-71    H    0.02031977    0.35965994    0.08811969    0.09030000
opls_146-72    H    0.62608001    0.55247010    0.92983928    0.13710000
opls_144-73    H    0.33313024    0.51448014    0.03755913    0.06640000
opls_910-74    H    0.52934993    0.36511015    0.80194956    0.27230000
opls_702-75    H    0.56757011    0.67228023    0.14075003    0.09030000
opls_702-76    H    0.59903001    0.67144012    0.70430942    0.11540000
opls_702-77    H    0.64034007    0.66066022    0.08811969    0.09030000
opls_146-78    H    0.44753001    0.07361011    0.92983928    0.13710000
opls_144-79    H    0.48552022    0.81865033    0.03755913    0.06640000
opls_910-80    H    0.63488988    0.16423993    0.80194956    0.27230000
opls_702-81    H    0.32772009    0.89529034    0.14075003    0.09030000
opls_702-82    H    0.32856009    0.92759005    0.70430942    0.11540000
opls_702-83    H    0.33933998    0.97968035    0.08811969    0.09030000
opls_281-84    O    0.75802995    0.46500018    0.25664968    -0.36200000
opls_281-85    O    0.53500024    0.29303024    0.25664968    -0.36190000
opls_281-86    O    0.70697005    0.24197008    0.25664968    -0.36190000
opls_281-87    O    0.24197030    0.53500032    0.25664968    -0.36200000
opls_281-88    O    0.46500001    0.70697026    0.25664968    -0.36190000
opls_281-89    O    0.29302995    0.75802992    0.25664968    -0.36200000
