#======================================================================
# Crystal Data Generated By AuToFF
#----------------------------------------------------------------------

data_AuToFF_phase_1

_cell_length_a                         34.5500
_cell_length_b                         34.5500
_cell_length_c                         3.4000
_cell_angle_alpha                      90.00
_cell_angle_beta                       90.00
_cell_angle_gamma                      120.00
_symmetry_space_group_name_H-M_alt     'P 1'
_symmetry_space_group_IT_number        1

loop_
_space_group_symop_operation_xyz
   'x, y, z'

loop_
   _atom_site_label
   _atom_site_type_symbol
   _atom_site_fract_x
   _atom_site_fract_y
   _atom_site_fract_z
   _atom_site_charge
MOF2_B_2-0    B    0.85314992    0.44876004    0.50000000    0.59900000
MOF2_B_2-1    B    0.55123993    0.40439013    0.50000000    0.59900000
MOF2_B_2-2    B    0.59560986    0.14684982    0.50000000    0.59900000
MOF2_B_2-3    B    0.14685008    0.55123996    0.50000000    0.59900000
MOF2_B_2-4    B    0.44876007    0.59560987    0.50000000    0.59900000
MOF2_B_2-5    B    0.40438997    0.85314984    0.50000000    0.59900000
opls_567-6    C    0.90326984    0.47648990    0.50000000    -0.32460000
opls_567-7    C    0.97852005    0.49864009    0.50000000    -0.03580000
opls_700-8    C    0.71048993    0.33984990    0.50000000    0.03330000
opls_166-9    C    0.78910005    0.38998997    0.50000000    0.18900000
opls_145-10    C    0.75442992    0.34732988    0.50000000    -0.20830000
opls_716-11    C    0.40584978    0.92811981    0.50000000    -0.11280000
opls_716-12    C    0.43704013    0.97235002    0.50000000    -0.17200000
opls_700-13    C    0.32626979    0.70379978    0.50000000    0.01740000
opls_166-14    C    0.35712996    0.78334010    0.50000000    0.18650000
opls_145-15    C    0.32032992    0.74163987    0.50000000    -0.18370000
opls_567-16    C    0.52351010    0.42677996    0.50000000    -0.32460000
opls_567-17    C    0.50135987    0.47987980    0.50000000    -0.03580000
opls_700-18    C    0.66015017    0.37064013    0.50000000    0.03330000
opls_166-19    C    0.61000996    0.39910993    0.50000000    0.18900000
opls_145-20    C    0.65267008    0.40709992    0.50000000    -0.20830000
opls_716-21    C    0.07188990    0.47773985    0.50000000    -0.11280000
opls_716-22    C    0.02765001    0.46468990    0.50000000    -0.17200000
opls_700-23    C    0.29620003    0.62247010    0.50000000    0.01740000
opls_166-24    C    0.21666001    0.57379990    0.50000000    0.18650000
opls_145-25    C    0.25836009    0.57869008    0.50000000    -0.18370000
opls_567-26    C    0.57322006    0.09673014    0.50000000    -0.32460000
opls_567-27    C    0.52012008    0.02148010    0.50000000    -0.03580000
opls_700-28    C    0.62935991    0.28950997    0.50000000    0.03330000
opls_166-29    C    0.60088999    0.21090010    0.50000000    0.18900000
opls_145-30    C    0.59289984    0.24556986    0.50000000    -0.20830000
opls_716-31    C    0.52225996    0.59415003    0.50000000    -0.11280000
opls_716-32    C    0.53531014    0.56296008    0.50000000    -0.17200000
opls_700-33    C    0.37753018    0.67373011    0.50000000    0.01740000
opls_166-34    C    0.42620000    0.64287003    0.50000000    0.18650000
opls_145-35    C    0.42130999    0.67967005    0.50000000    -0.18370000
opls_567-36    C    0.09673016    0.52351010    0.50000000    -0.32460000
opls_567-37    C    0.02147995    0.50135991    0.50000000    -0.03580000
opls_700-38    C    0.28951007    0.66015010    0.50000000    0.03330000
opls_166-39    C    0.21089995    0.61001003    0.50000000    0.18900000
opls_145-40    C    0.24557008    0.65267012    0.50000000    -0.20830000
opls_716-41    C    0.59414986    0.07188988    0.50000000    -0.11280000
opls_716-42    C    0.56295987    0.02764998    0.50000000    -0.17200000
opls_700-43    C    0.67373004    0.29619988    0.50000000    0.01740000
opls_166-44    C    0.64287004    0.21665990    0.50000000    0.18650000
opls_145-45    C    0.67967008    0.25836013    0.50000000    -0.18370000
opls_567-46    C    0.47648990    0.57322004    0.50000000    -0.32460000
opls_567-47    C    0.49863996    0.52011986    0.50000000    -0.03580000
opls_700-48    C    0.33984983    0.62935987    0.50000000    0.03330000
opls_166-49    C    0.38999004    0.60089007    0.50000000    0.18900000
opls_145-50    C    0.34732992    0.59290008    0.50000000    -0.20830000
opls_716-51    C    0.92810994    0.52225982    0.50000000    -0.11280000
opls_716-52    C    0.97234999    0.53531010    0.50000000    -0.17200000
opls_700-53    C    0.70379997    0.37752990    0.50000000    0.01740000
opls_166-54    C    0.78333999    0.42620010    0.50000000    0.18650000
opls_145-55    C    0.74163991    0.42130992    0.50000000    -0.18370000
opls_567-56    C    0.42677994    0.90326986    0.50000000    -0.32470000
opls_567-57    C    0.47987992    0.97851990    0.50000000    -0.03590000
opls_700-58    C    0.37064009    0.71049003    0.50000000    0.03330000
opls_166-59    C    0.39911001    0.78909990    0.50000000    0.18900000
opls_145-60    C    0.40710000    0.75442981    0.50000000    -0.20830000
opls_716-61    C    0.47774004    0.40584997    0.50000000    -0.11280000
opls_716-62    C    0.46468986    0.43703992    0.50000000    -0.17200000
opls_700-63    C    0.62246982    0.32626989    0.50000000    0.01740000
opls_166-64    C    0.57380000    0.35712997    0.50000000    0.18650000
opls_145-65    C    0.57869001    0.32032995    0.50000000    -0.18380000
opls_167-66    O    0.83244001    0.40051997    0.50000000    -0.33430000
opls_167-67    O    0.35631991    0.82270987    0.50000000    -0.33670000
opls_167-68    O    0.59948009    0.43191011    0.50000000    -0.33330000
opls_167-69    O    0.17730001    0.53362000    0.50000000    -0.33670000
opls_167-70    O    0.56808994    0.16755990    0.50000000    -0.33840000
opls_167-71    O    0.46638000    0.64367983    0.50000000    -0.33670000
opls_167-72    O    0.16755999    0.59948003    0.50000000    -0.33440000
opls_167-73    O    0.64368001    0.17729983    0.50000000    -0.33670000
opls_167-74    O    0.40051991    0.56808989    0.50000000    -0.33330000
opls_167-75    O    0.82269999    0.46638000    0.50000000    -0.33670000
opls_167-76    O    0.43191006    0.83244010    0.50000000    -0.33840000
opls_167-77    O    0.53361983    0.35631984    0.50000000    -0.33670000
opls_146-78    H    0.76396013    0.32215006    0.50000000    0.11200000
opls_146-79    H    0.28897999    0.74104999    0.50000000    0.11200000
opls_570-80    H    0.36998007    0.91455985    0.50000000    0.12050000
opls_570-81    H    0.42909994    0.99895993    0.50000000    0.12150000
opls_146-82    H    0.67785007    0.44181012    0.50000000    0.11200000
opls_146-83    H    0.25894991    0.54792993    0.50000000    0.11200000
opls_570-84    H    0.08543989    0.45541987    0.50000000    0.12050000
opls_570-85    H    0.00103996    0.43014012    0.50000000    0.12150000
opls_146-86    H    0.55818981    0.23603982    0.50000000    0.11200000
opls_146-87    H    0.45207010    0.71102009    0.50000000    0.11200000
opls_570-88    H    0.54457987    0.63001994    0.50000000    0.12050000
opls_570-89    H    0.56986010    0.57089994    0.50000000    0.12150000
opls_146-90    H    0.23603987    0.67784994    0.50000000    0.11200000
opls_146-91    H    0.71102001    0.25895001    0.50000000    0.11200000
opls_570-92    H    0.63002022    0.08544015    0.50000000    0.12050000
opls_570-93    H    0.57090006    0.00104007    0.50000000    0.12150000
opls_146-94    H    0.32214993    0.55818988    0.50000000    0.11200000
opls_146-95    H    0.74105009    0.45207007    0.50000000    0.11200000
opls_570-96    H    0.91455994    0.54457979    0.50000000    0.12050000
opls_570-97    H    0.99896004    0.56985988    0.50000000    0.12150000
opls_146-98    H    0.44181002    0.76395984    0.50000000    0.11200000
opls_146-99    H    0.54792990    0.28897991    0.50000000    0.11200000
opls_570-100    H    0.45542013    0.36998006    0.50000000    0.12050000
opls_570-101    H    0.43013990    0.42910006    0.50000000    0.12150000
opls_633-102    S    0.55152988    0.48322994    0.50000000    0.21810000
opls_633-103    S    0.51677003    0.06830011    0.50000000    0.21810000
opls_633-104    S    0.93170010    0.44846995    0.50000000    0.21810000
opls_633-105    S    0.44847012    0.51677006    0.50000000    0.21810000
opls_633-106    S    0.48322997    0.93169989    0.50000000    0.21810000
opls_633-107    S    0.06829990    0.55153005    0.50000000    0.21810000
