#======================================================================
# Crystal Data Generated By AuToFF
#----------------------------------------------------------------------

data_AuToFF_phase_1

_cell_length_a                         46.8300
_cell_length_b                         46.8300
_cell_length_c                         3.4100
_cell_angle_alpha                      90.00
_cell_angle_beta                       90.00
_cell_angle_gamma                      120.00
_symmetry_space_group_name_H-M_alt     'P 1'
_symmetry_space_group_IT_number        1

loop_
_space_group_symop_operation_xyz
   'x, y, z'

loop_
   _atom_site_label
   _atom_site_type_symbol
   _atom_site_fract_x
   _atom_site_fract_y
   _atom_site_fract_z
   _atom_site_charge
opls_145-0    C    0.01639997    0.50819990    0.50000000    0.07580000
opls_145-1    C    0.49179993    0.50819990    0.50000000    0.07580000
opls_145-2    C    0.49179997    0.98359995    0.50000000    0.07580000
opls_145-3    C    0.98360003    0.49180010    0.50000000    0.07580000
opls_145-4    C    0.50820007    0.49180010    0.50000000    0.07580000
opls_145-5    C    0.50820003    0.01640005    0.50000000    0.07580000
opls_145-6    C    0.03599994    0.54389995    0.50000000    -0.11390000
opls_145-7    C    0.07150003    0.56170004    0.50000000    -0.07530000
opls_700-8    C    0.21040001    0.63629991    0.50000000    -0.00510000
opls_145-9    C    0.21040004    0.66699995    0.50000000    -0.11410000
opls_145-10    C    0.24109996    0.69759988    0.50000000    -0.10780000
opls_700-11    C    0.27170004    0.69750002    0.50000000    0.05180000
opls_145-12    C    0.27170008    0.66620007    0.50000000    -0.20860000
opls_700-13    C    0.24109999    0.63629991    0.50000000    0.02730000
opls_166-14    C    0.39305003    0.57379000    0.50000000    0.15620000
opls_145-15    C    0.45609993    0.49209993    0.50000000    -0.11390000
opls_145-16    C    0.43829991    0.50979991    0.50000000    -0.07530000
opls_700-17    C    0.36369998    0.57409994    0.50000000    -0.00510000
opls_145-18    C    0.33299997    0.54339990    0.50000000    -0.11410000
opls_145-19    C    0.30240001    0.54350001    0.50000000    -0.10780000
opls_700-20    C    0.30249998    0.57420005    0.50000000    0.05180000
opls_145-21    C    0.33379997    0.60550000    0.50000000    -0.20860000
opls_700-22    C    0.36370001    0.60479998    0.50000000    0.02730000
opls_166-23    C    0.42620992    0.81925990    0.50000000    0.15620000
opls_145-24    C    0.50790000    0.96399987    0.50000000    -0.11390000
opls_145-25    C    0.49020005    0.92850005    0.50000000    -0.07530000
opls_700-26    C    0.42589989    0.78959990    0.50000000    -0.00510000
opls_145-27    C    0.45659987    0.78959990    0.50000000    -0.11410000
opls_145-28    C    0.45650002    0.75890011    0.50000000    -0.10780000
opls_700-29    C    0.42579997    0.72829993    0.50000000    0.05180000
opls_145-30    C    0.39449995    0.72829993    0.50000000    -0.20860000
opls_700-31    C    0.39520000    0.75890011    0.50000000    0.02730000
opls_166-32    C    0.18074005    0.60695010    0.50000000    0.15620000
opls_145-33    C    0.96400006    0.45610005    0.50000000    -0.11390000
opls_145-34    C    0.92849997    0.43829996    0.50000000    -0.07530000
opls_700-35    C    0.78959999    0.36370009    0.50000000    -0.00510000
opls_145-36    C    0.78959996    0.33300005    0.50000000    -0.11410000
opls_145-37    C    0.75890004    0.30240012    0.50000000    -0.10780000
opls_700-38    C    0.72829996    0.30249998    0.50000000    0.05180000
opls_145-39    C    0.72829992    0.33379993    0.50000000    -0.20860000
opls_700-40    C    0.75890001    0.36370009    0.50000000    0.02730000
opls_166-41    C    0.60694997    0.42621000    0.50000000    0.15620000
opls_145-42    C    0.54390007    0.50790007    0.50000000    -0.11390000
opls_145-43    C    0.56170009    0.49020009    0.50000000    -0.07530000
opls_700-44    C    0.63630002    0.42590006    0.50000000    -0.00510000
opls_145-45    C    0.66700003    0.45660010    0.50000000    -0.11410000
opls_145-46    C    0.69759999    0.45649999    0.50000000    -0.10780000
opls_700-47    C    0.69750002    0.42579995    0.50000000    0.05180000
opls_145-48    C    0.66620003    0.39450000    0.50000000    -0.20860000
opls_700-49    C    0.63629999    0.39520002    0.50000000    0.02730000
opls_166-50    C    0.57379008    0.18074010    0.50000000    0.15620000
opls_145-51    C    0.49209988    0.03599988    0.50000000    -0.11390000
opls_145-52    C    0.50979995    0.07149995    0.50000000    -0.07530000
opls_700-53    C    0.57410011    0.21040010    0.50000000    -0.00510000
opls_145-54    C    0.54340013    0.21040010    0.50000000    -0.11410000
opls_145-55    C    0.54349998    0.24109989    0.50000000    -0.10780000
opls_700-56    C    0.57420003    0.27170007    0.50000000    0.05180000
opls_145-57    C    0.60550005    0.27170007    0.50000000    -0.20860000
opls_700-58    C    0.60480000    0.24109989    0.50000000    0.02730000
opls_166-59    C    0.81925995    0.39304990    0.50000000    0.15620000
opls_145-60    C    0.54390000    0.03599988    0.50000000    -0.11390000
opls_145-61    C    0.56170001    0.07149995    0.50000000    -0.07530000
opls_700-62    C    0.63629998    0.21040010    0.50000000    -0.00510000
opls_145-63    C    0.66699996    0.21040010    0.50000000    -0.11410000
opls_145-64    C    0.69759991    0.24109989    0.50000000    -0.10780000
opls_700-65    C    0.69750005    0.27170007    0.50000000    0.05180000
opls_145-66    C    0.66620003    0.27170007    0.50000000    -0.20860000
opls_700-67    C    0.63629989    0.24109989    0.50000000    0.02730000
opls_166-68    C    0.57378995    0.39304990    0.50000000    0.15620000
opls_145-69    C    0.49209999    0.45610005    0.50000000    -0.11390000
opls_145-70    C    0.50979999    0.43829996    0.50000000    -0.07530000
opls_700-71    C    0.57410010    0.36370009    0.50000000    -0.00510000
opls_145-72    C    0.54340009    0.33300005    0.50000000    -0.11410000
opls_145-73    C    0.54350008    0.30240012    0.50000000    -0.10780000
opls_700-74    C    0.57420002    0.30249998    0.50000000    0.05180000
opls_145-75    C    0.60550001    0.33379993    0.50000000    -0.20860000
opls_700-76    C    0.60480008    0.36370009    0.50000000    0.02730000
opls_166-77    C    0.81926003    0.42621000    0.50000000    0.15620000
opls_145-78    C    0.96400000    0.50790007    0.50000000    -0.11390000
opls_145-79    C    0.92850000    0.49020009    0.50000000    -0.07530000
opls_700-80    C    0.78960004    0.42590006    0.50000000    -0.00510000
opls_145-81    C    0.78960007    0.45660010    0.50000000    -0.11410000
opls_145-82    C    0.75890001    0.45649999    0.50000000    -0.10780000
opls_700-83    C    0.72829993    0.42579995    0.50000000    0.05180000
opls_145-84    C    0.72829997    0.39450000    0.50000000    -0.20860000
opls_700-85    C    0.75890003    0.39520002    0.50000000    0.02730000
opls_166-86    C    0.60695002    0.18074010    0.50000000    0.15620000
opls_145-87    C    0.45609987    0.96399987    0.50000000    -0.11390000
opls_145-88    C    0.43829999    0.92850005    0.50000000    -0.07530000
opls_700-89    C    0.36370002    0.78959990    0.50000000    -0.00510000
opls_145-90    C    0.33300004    0.78959990    0.50000000    -0.11410000
opls_145-91    C    0.30240009    0.75890011    0.50000000    -0.10780000
opls_700-92    C    0.30249995    0.72829993    0.50000000    0.05180000
opls_145-93    C    0.33379997    0.72829993    0.50000000    -0.20860000
opls_700-94    C    0.36370011    0.75890011    0.50000000    0.02730000
opls_166-95    C    0.42621005    0.60695010    0.50000000    0.15620000
opls_145-96    C    0.50790001    0.54389995    0.50000000    -0.11390000
opls_145-97    C    0.49020001    0.56170004    0.50000000    -0.07530000
opls_700-98    C    0.42589990    0.63629991    0.50000000    -0.00510000
opls_145-99    C    0.45659991    0.66699995    0.50000000    -0.11410000
opls_145-100    C    0.45649992    0.69759988    0.50000000    -0.10780000
opls_700-101    C    0.42579998    0.69750002    0.50000000    0.05180000
opls_145-102    C    0.39449999    0.66620007    0.50000000    -0.20860000
opls_700-103    C    0.39519992    0.63629991    0.50000000    0.02730000
opls_166-104    C    0.18073997    0.57379000    0.50000000    0.15620000
opls_145-105    C    0.03600000    0.49209993    0.50000000    -0.11390000
opls_145-106    C    0.07150000    0.50979991    0.50000000    -0.07530000
opls_700-107    C    0.21039996    0.57409994    0.50000000    -0.00510000
opls_145-108    C    0.21039993    0.54339990    0.50000000    -0.11410000
opls_145-109    C    0.24109999    0.54350001    0.50000000    -0.10780000
opls_700-110    C    0.27170007    0.57420005    0.50000000    0.05180000
opls_145-111    C    0.27170003    0.60550000    0.50000000    -0.20860000
opls_700-112    C    0.24109997    0.60479998    0.50000000    0.02730000
opls_166-113    C    0.39304998    0.81925990    0.50000000    0.15620000
opls_145-114    C    0.54460008    0.45540003    0.50000000    -0.28720000
opls_145-115    C    0.54459997    0.08919994    0.50000000    -0.28720000
opls_145-116    C    0.91079995    0.45540003    0.50000000    -0.28720000
opls_145-117    C    0.45539992    0.54459997    0.50000000    -0.28720000
opls_145-118    C    0.45540003    0.91080006    0.50000000    -0.28710000
opls_145-119    C    0.08920005    0.54459997    0.50000000    -0.28720000
opls_167-120    O    0.40108008    0.54578007    0.50000000    -0.41680000
opls_167-121    O    0.45421992    0.85529997    0.50000000    -0.41680000
opls_167-122    O    0.14470000    0.59891996    0.50000000    -0.41680000
opls_167-123    O    0.59891992    0.45421993    0.50000000    -0.41680000
opls_167-124    O    0.54578008    0.14470003    0.50000000    -0.41680000
opls_167-125    O    0.85530000    0.40108004    0.50000000    -0.41680000
opls_167-126    O    0.54578004    0.40108004    0.50000000    -0.41680000
opls_167-127    O    0.85530002    0.45421993    0.50000000    -0.41660000
opls_167-128    O    0.59891995    0.14470003    0.50000000    -0.41680000
opls_167-129    O    0.45421996    0.59891996    0.50000000    -0.41680000
opls_167-130    O    0.14469998    0.54578007    0.50000000    -0.41680000
opls_167-131    O    0.40108005    0.85529997    0.50000000    -0.41670000
opls_146-132    H    0.02518997    0.55943995    0.50000000    0.08060000
opls_146-133    H    0.08427992    0.58850004    0.50000000    0.09220000
opls_146-134    H    0.18726997    0.66706011    0.50000000    0.09340000
opls_146-135    H    0.23841989    0.71899994    0.50000000    0.20370000
opls_146-136    H    0.29347003    0.66658004    0.50000000    0.20470000
opls_146-137    H    0.44055999    0.46574993    0.50000000    0.08060000
opls_146-138    H    0.41150009    0.49578003    0.50000000    0.09220000
opls_146-139    H    0.33293992    0.52020997    0.50000000    0.09350000
opls_146-140    H    0.28099996    0.51941995    0.50000000    0.20370000
opls_146-141    H    0.33341999    0.62688995    0.50000000    0.20470000
opls_146-142    H    0.53424991    0.97480987    0.50000000    0.08060000
opls_146-143    H    0.50421999    0.91571993    0.50000000    0.09220000
opls_146-144    H    0.47978990    0.81272991    0.50000000    0.09340000
opls_146-145    H    0.48058015    0.76158011    0.50000000    0.20370000
opls_146-146    H    0.37310998    0.70653001    0.50000000    0.20470000
opls_146-147    H    0.97481003    0.44056005    0.50000000    0.08060000
opls_146-148    H    0.91572008    0.41149996    0.50000000    0.09220000
opls_146-149    H    0.81273003    0.33293989    0.50000000    0.09340000
opls_146-150    H    0.76158011    0.28100006    0.50000000    0.20370000
opls_146-151    H    0.70652997    0.33341996    0.50000000    0.20470000
opls_146-152    H    0.55944001    0.53425007    0.50000000    0.08060000
opls_146-153    H    0.58849991    0.50421997    0.50000000    0.09230000
opls_146-154    H    0.66706008    0.47979003    0.50000000    0.09340000
opls_146-155    H    0.71900004    0.48058005    0.50000000    0.20370000
opls_146-156    H    0.66658001    0.37311005    0.50000000    0.20470000
opls_146-157    H    0.46574997    0.02518988    0.50000000    0.08060000
opls_146-158    H    0.49578001    0.08428007    0.50000000    0.09220000
opls_146-159    H    0.52021010    0.18727009    0.50000000    0.09340000
opls_146-160    H    0.51941985    0.23841989    0.50000000    0.20370000
opls_146-161    H    0.62689002    0.29346999    0.50000000    0.20470000
opls_146-162    H    0.55943991    0.02518988    0.50000000    0.08060000
opls_146-163    H    0.58850006    0.08428007    0.50000000    0.09220000
opls_146-164    H    0.66705998    0.18727009    0.50000000    0.09340000
opls_146-165    H    0.71900004    0.23841989    0.50000000    0.20370000
opls_146-166    H    0.66657996    0.29346999    0.50000000    0.20470000
opls_146-167    H    0.46575002    0.44056005    0.50000000    0.08060000
opls_146-168    H    0.49577987    0.41149996    0.50000000    0.09220000
opls_146-169    H    0.52020985    0.33293989    0.50000000    0.09340000
opls_146-170    H    0.51941995    0.28100006    0.50000000    0.20370000
opls_146-171    H    0.62688999    0.33341996    0.50000000    0.20470000
opls_146-172    H    0.97481007    0.53425007    0.50000000    0.08060000
opls_146-173    H    0.91572006    0.50421997    0.50000000    0.09220000
opls_146-174    H    0.81272995    0.47979003    0.50000000    0.09340000
opls_146-175    H    0.76158001    0.48058005    0.50000000    0.20370000
opls_146-176    H    0.70653004    0.37311005    0.50000000    0.20470000
opls_146-177    H    0.44055997    0.97480987    0.50000000    0.08060000
opls_146-178    H    0.41149994    0.91571993    0.50000000    0.09220000
opls_146-179    H    0.33294002    0.81272991    0.50000000    0.09340000
opls_146-180    H    0.28099996    0.76158011    0.50000000    0.20370000
opls_146-181    H    0.33342004    0.70653001    0.50000000    0.20470000
opls_146-182    H    0.53424998    0.55943995    0.50000000    0.08060000
opls_146-183    H    0.50422013    0.58850004    0.50000000    0.09220000
opls_146-184    H    0.47979015    0.66706011    0.50000000    0.09340000
opls_146-185    H    0.48058005    0.71899994    0.50000000    0.20370000
opls_146-186    H    0.37311001    0.66658004    0.50000000    0.20470000
opls_146-187    H    0.02518993    0.46574993    0.50000000    0.08060000
opls_146-188    H    0.08427994    0.49578003    0.50000000    0.09220000
opls_146-189    H    0.18727005    0.52020997    0.50000000    0.09340000
opls_146-190    H    0.23841999    0.51941995    0.50000000    0.20370000
opls_146-191    H    0.29346996    0.62688995    0.50000000    0.20470000
MOF2_B_2-192    B    0.43873003    0.56127002    0.50000000    0.47470000
MOF2_B_2-193    B    0.43872998    0.87745996    0.50000000    0.47470000
MOF2_B_2-194    B    0.12253998    0.56127002    0.50000000    0.47470000
MOF2_B_2-195    B    0.56126997    0.43872998    0.50000000    0.47470000
MOF2_B_2-196    B    0.56127002    0.12254004    0.50000000    0.47470000
MOF2_B_2-197    B    0.87746002    0.43872998    0.50000000    0.47470000
