#======================================================================
# Crystal Data Generated By AuToFF
#----------------------------------------------------------------------

data_AuToFF_phase_1

_cell_length_a                         25.3662
_cell_length_b                         20.8646
_cell_length_c                         5.0556
_cell_angle_alpha                      90.00
_cell_angle_beta                       90.00
_cell_angle_gamma                      90.00
_symmetry_space_group_name_H-M_alt     'P 1'
_symmetry_space_group_IT_number        1

loop_
_space_group_symop_operation_xyz
   'x, y, z'

loop_
   _atom_site_label
   _atom_site_type_symbol
   _atom_site_fract_x
   _atom_site_fract_y
   _atom_site_fract_z
   _atom_site_charge
opls_145-0    C    0.37602991    0.13486000    0.02141981    0.02700000
opls_145-1    C    0.38383991    0.09279977    0.20556017    -0.22430000
opls_145-2    C    0.42340004    0.05759995    0.19442994    -0.22170000
opls_145-3    C    0.45595004    0.06341986    0.00082087    0.02600000
opls_145-4    C    0.44814004    0.10498979    0.81561041    -0.22450000
opls_145-5    C    0.40841001    0.14001994    0.82426023    -0.22420000
opls_145-6    C    0.33512982    0.17426982    0.03870955    0.02160000
opls_145-7    C    0.33948010    0.23226997    0.96822929    -0.21090000
opls_145-8    C    0.30117992    0.26947988    0.98335905    -0.21470000
opls_145-9    C    0.25761998    0.24943014    0.06931917    0.14750000
opls_145-10    C    0.25352004    0.19227016    0.14658003    -0.21460000
opls_145-11    C    0.29169998    0.15473002    0.12962062    -0.21370000
opls_142-12    C    0.78961019    0.33085993    0.05727906    0.08170000
opls_145-13    C    0.95713982    0.53049999    0.00239932    -0.00710000
opls_145-14    C    0.91338001    0.43498989    0.00298085    0.02640000
opls_145-15    C    0.90567014    0.60916001    0.17175014    -0.22450000
opls_145-16    C    0.86521000    0.64309980    0.15756982    -0.22430000
opls_145-17    C    0.83208009    0.63349022    0.96749941    0.00920000
opls_145-18    C    0.83972018    0.58908007    0.79518949    -0.22440000
opls_145-19    C    0.87997020    0.55536986    0.81029947    -0.21570000
opls_145-20    C    0.62397009    0.86514000    0.02141981    0.02700000
opls_145-21    C    0.61616009    0.90720023    0.20556017    -0.22430000
opls_145-22    C    0.57659996    0.94240005    0.19442994    -0.22170000
opls_145-23    C    0.54404996    0.93658014    0.00082087    0.02590000
opls_145-24    C    0.55185996    0.89501021    0.81561041    -0.22450000
opls_145-25    C    0.59158999    0.85998006    0.82426023    -0.22420000
opls_145-26    C    0.66487018    0.82573018    0.03870955    0.02160000
opls_145-27    C    0.66051990    0.76773003    0.96822929    -0.21090000
opls_145-28    C    0.69882008    0.73052012    0.98335905    -0.21470000
opls_145-29    C    0.74238002    0.75056986    0.06931917    0.14750000
opls_145-30    C    0.74647996    0.80772984    0.14658003    -0.21470000
opls_145-31    C    0.70830002    0.84526998    0.12962062    -0.21370000
opls_142-32    C    0.21038981    0.66914007    0.05727906    0.08160000
opls_145-33    C    0.04286018    0.46950001    0.00239932    -0.00710000
opls_145-34    C    0.08661999    0.56501011    0.00298085    0.02640000
opls_145-35    C    0.09432986    0.39083999    0.17175014    -0.22450000
opls_145-36    C    0.13479000    0.35690020    0.15756982    -0.22430000
opls_145-37    C    0.16791991    0.36650978    0.96749941    0.00920000
opls_145-38    C    0.16027982    0.41091993    0.79518949    -0.22440000
opls_145-39    C    0.12002980    0.44463014    0.81029947    -0.21570000
opls_145-40    C    0.62397009    0.13486000    0.97858019    0.02700000
opls_145-41    C    0.61616009    0.09279977    0.79443983    -0.22430000
opls_145-42    C    0.57659996    0.05759995    0.80557006    -0.22170000
opls_145-43    C    0.54404996    0.06341986    0.99917913    0.02590000
opls_145-44    C    0.55185996    0.10498979    0.18438959    -0.22450000
opls_145-45    C    0.59158999    0.14001994    0.17573977    -0.22420000
opls_145-46    C    0.66487018    0.17426982    0.96129045    0.02160000
opls_145-47    C    0.66051990    0.23226997    0.03177071    -0.21090000
opls_145-48    C    0.69882008    0.26947988    0.01664095    -0.21470000
opls_145-49    C    0.74238002    0.24943014    0.93068083    0.14750000
opls_145-50    C    0.74647996    0.19227016    0.85341997    -0.21470000
opls_145-51    C    0.70830002    0.15473002    0.87037938    -0.21370000
opls_142-52    C    0.21038981    0.33085993    0.94272094    0.08160000
opls_145-53    C    0.04286018    0.53049999    0.99760068    -0.00710000
opls_145-54    C    0.08661999    0.43498989    0.99701915    0.02640000
opls_145-55    C    0.09432986    0.60916001    0.82824986    -0.22450000
opls_145-56    C    0.13479000    0.64309980    0.84243018    -0.22430000
opls_145-57    C    0.16791991    0.63349022    0.03250059    0.00920000
opls_145-58    C    0.16027982    0.58908007    0.20481051    -0.22440000
opls_145-59    C    0.12002980    0.55536986    0.18970053    -0.21570000
opls_145-60    C    0.37602991    0.86514000    0.97858019    0.02700000
opls_145-61    C    0.38383991    0.90720023    0.79443983    -0.22420000
opls_145-62    C    0.42340004    0.94240005    0.80557006    -0.22170000
opls_145-63    C    0.45595004    0.93658014    0.99917913    0.02590000
opls_145-64    C    0.44814004    0.89501021    0.18438959    -0.22450000
opls_145-65    C    0.40841001    0.85998006    0.17573977    -0.22420000
opls_145-66    C    0.33512982    0.82573018    0.96129045    0.02160000
opls_145-67    C    0.33948010    0.76773003    0.03177071    -0.21080000
opls_145-68    C    0.30117992    0.73052012    0.01664095    -0.21460000
opls_145-69    C    0.25761998    0.75056986    0.93068083    0.14750000
opls_145-70    C    0.25352004    0.80772984    0.85341997    -0.21470000
opls_145-71    C    0.29169998    0.84526998    0.87037938    -0.21370000
opls_142-72    C    0.78961019    0.66914007    0.94272094    0.08160000
opls_145-73    C    0.95713982    0.46950001    0.99760068    -0.00710000
opls_145-74    C    0.91338001    0.56501011    0.99701915    0.02640000
opls_145-75    C    0.90567014    0.39083999    0.82824986    -0.22450000
opls_145-76    C    0.86521000    0.35690020    0.84243018    -0.22430000
opls_145-77    C    0.83208009    0.36650978    0.03250059    0.00920000
opls_145-78    C    0.83972018    0.41091993    0.20481051    -0.22440000
opls_145-79    C    0.87997020    0.44463014    0.18970053    -0.21570000
opls_141-80    C    0.50000000    0.02935978    0.00000000    -0.01400000
opls_141-81    C    0.50000000    0.97064022    0.00000000    -0.01400000
opls_145-82    C    0.00000000    0.55994987    0.00000000    -0.13840000
opls_145-83    C    0.00000000    0.44005013    0.00000000    -0.13840000
opls_750-84    N    0.78276999    0.28609990    0.91622953    -0.21640000
opls_750-85    N    0.21723001    0.71390010    0.91622953    -0.21650000
opls_750-86    N    0.21723001    0.28609990    0.08377047    -0.21640000
opls_750-87    N    0.78276999    0.71390010    0.08377047    -0.21640000
opls_146-88    H    0.36021990    0.08828015    0.36269088    0.20030000
opls_146-89    H    0.42944982    0.02677022    0.33972031    0.20030000
opls_146-90    H    0.47296994    0.11042004    0.66492998    0.20040000
opls_146-91    H    0.40303987    0.17115018    0.67643999    0.20030000
opls_146-92    H    0.37274996    0.24922021    0.90537028    0.20040000
opls_146-93    H    0.30600011    0.31402998    0.93236016    0.20040000
opls_146-94    H    0.22021982    0.17676016    0.21553920    0.20010000
opls_146-95    H    0.28700988    0.11028009    0.18403948    0.20010000
opls_144-96    H    0.76505980    0.34149996    0.20468985    0.09410000
opls_146-97    H    0.93091003    0.61716017    0.31902049    0.20040000
opls_146-98    H    0.85977009    0.67696002    0.29370995    0.20050000
opls_146-99    H    0.81476019    0.58083980    0.64683915    0.20040000
opls_146-100    H    0.88544993    0.52182980    0.67566065    0.20020000
opls_146-101    H    0.63978010    0.91171985    0.36269088    0.20030000
opls_146-102    H    0.57055018    0.97322978    0.33972031    0.20020000
opls_146-103    H    0.52703006    0.88957996    0.66492998    0.20040000
opls_146-104    H    0.59696013    0.82884982    0.67643999    0.20030000
opls_146-105    H    0.62725004    0.75077979    0.90537028    0.20040000
opls_146-106    H    0.69399989    0.68597002    0.93236016    0.20040000
opls_146-107    H    0.77978018    0.82323984    0.21553920    0.20010000
opls_146-108    H    0.71299012    0.88971991    0.18403948    0.20010000
opls_144-109    H    0.23494020    0.65850004    0.20468985    0.09410000
opls_146-110    H    0.06908997    0.38283983    0.31902049    0.20040000
opls_146-111    H    0.14022991    0.32303998    0.29370995    0.20040000
opls_146-112    H    0.18523981    0.41916020    0.64683915    0.20040000
opls_146-113    H    0.11455007    0.47817020    0.67566065    0.20020000
opls_146-114    H    0.63978010    0.08828015    0.63730912    0.20030000
opls_146-115    H    0.57055018    0.02677022    0.66027969    0.20020000
opls_146-116    H    0.52703006    0.11042004    0.33507002    0.20050000
opls_146-117    H    0.59696013    0.17115018    0.32356001    0.20030000
opls_146-118    H    0.62725004    0.24922021    0.09462972    0.20040000
opls_146-119    H    0.69399989    0.31402998    0.06763984    0.20030000
opls_146-120    H    0.77978018    0.17676016    0.78446080    0.20010000
opls_146-121    H    0.71299012    0.11028009    0.81596052    0.20020000
opls_144-122    H    0.23494020    0.34149996    0.79531015    0.09410000
opls_146-123    H    0.06908997    0.61716017    0.68097951    0.20040000
opls_146-124    H    0.14022991    0.67696002    0.70629005    0.20040000
opls_146-125    H    0.18523981    0.58083980    0.35316085    0.20040000
opls_146-126    H    0.11455007    0.52182980    0.32433935    0.20020000
opls_146-127    H    0.36021990    0.91171985    0.63730912    0.20030000
opls_146-128    H    0.42944982    0.97322978    0.66027969    0.20030000
opls_146-129    H    0.47296994    0.88957996    0.33507002    0.20040000
opls_146-130    H    0.40303987    0.82884982    0.32356001    0.20030000
opls_146-131    H    0.37274996    0.75077979    0.09462972    0.20040000
opls_146-132    H    0.30600011    0.68597002    0.06763984    0.20040000
opls_146-133    H    0.22021982    0.82323984    0.78446080    0.20010000
opls_146-134    H    0.28700988    0.88971991    0.81596052    0.20010000
opls_144-135    H    0.76505980    0.65850004    0.79531015    0.09410000
opls_146-136    H    0.93091003    0.38283983    0.68097951    0.20040000
opls_146-137    H    0.85977009    0.32303998    0.70629005    0.20050000
opls_146-138    H    0.81476019    0.41916020    0.35316085    0.20040000
opls_146-139    H    0.88544993    0.47817020    0.32433935    0.20020000
opls_146-140    H    0.00000000    0.60655991    0.00000000    0.20030000
opls_146-141    H    0.00000000    0.39344009    0.00000000    0.20030000
