#======================================================================
# Crystal Data Generated By AuToFF
#----------------------------------------------------------------------

data_AuToFF_phase_1

_cell_length_a                         35.9164
_cell_length_b                         35.8973
_cell_length_c                         3.6000
_cell_angle_alpha                      90.00
_cell_angle_beta                       90.00
_cell_angle_gamma                      90.32
_symmetry_space_group_name_H-M_alt     'P 1'
_symmetry_space_group_IT_number        1

loop_
_space_group_symop_operation_xyz
   'x, y, z'

loop_
   _atom_site_label
   _atom_site_type_symbol
   _atom_site_fract_x
   _atom_site_fract_y
   _atom_site_fract_z
   _atom_site_charge
opls_166-0    C    0.48197989    0.68197995    0.38888889    0.18820000
opls_145-1    C    0.54108002    0.64972993    0.38888889    -0.20700000
opls_700-2    C    0.52050989    0.61684003    0.38888889    0.01090000
opls_543-3    C    0.53328996    0.57899006    0.38888889    0.33860000
opls_166-4    C    0.31761010    0.48132016    0.38888889    0.18820000
opls_145-5    C    0.35052997    0.54051999    0.38888889    -0.20700000
opls_700-6    C    0.38320998    0.51998998    0.38888889    0.00940000
opls_543-7    C    0.42153004    0.53302014    0.38888889    0.33060000
opls_166-8    C    0.51802005    0.31801002    0.38888889    0.18820000
opls_145-9    C    0.45892994    0.35026004    0.38888889    -0.20700000
opls_700-10    C    0.47949006    0.38314994    0.38888889    0.01090000
opls_543-11    C    0.46670988    0.42102999    0.38888889    0.33860000
opls_166-12    C    0.68238990    0.51868011    0.38888889    0.18820000
opls_145-13    C    0.64947003    0.45948001    0.38888889    -0.20700000
opls_700-14    C    0.61678991    0.48004010    0.38888889    0.00940000
opls_543-15    C    0.57846996    0.46698014    0.38888889    0.33410000
opls_166-16    C    0.52035001    0.68231006    0.38888889    0.18820000
opls_145-17    C    0.46140987    0.64905996    0.38888889    -0.20700000
opls_700-18    C    0.48216989    0.61651994    0.38888889    0.01090000
opls_543-19    C    0.46961005    0.57843012    0.38888889    0.35150000
opls_166-20    C    0.68225011    0.48026018    0.38888889    0.18820000
opls_145-21    C    0.64975004    0.53932016    0.38888889    -0.20700000
opls_700-22    C    0.61694007    0.51861994    0.38888889    0.00940000
opls_543-23    C    0.57871988    0.53149994    0.38888889    0.35280000
opls_166-24    C    0.47966001    0.31768994    0.38888889    0.18820000
opls_145-25    C    0.53859008    0.35093002    0.38888889    -0.20700000
opls_700-26    C    0.51783011    0.38348006    0.38888889    0.01090000
opls_543-27    C    0.53038995    0.42157015    0.38888889    0.35150000
opls_166-28    C    0.31775012    0.51973007    0.38888889    0.18820000
opls_145-29    C    0.35025998    0.46068012    0.38888889    -0.20700000
opls_700-30    C    0.38306995    0.48138006    0.38888889    0.00940000
opls_543-31    C    0.42128012    0.46850006    0.38888889    0.35280000
opls_700-32    C    0.01975994    0.50002995    0.38888889    -0.00440000
opls_523-33    C    0.02003006    0.56655996    0.38888889    -0.12450000
opls_523-34    C    0.01949005    0.43348990    0.38888889    -0.12480000
opls_700-35    C    0.03960013    0.53332992    0.38888889    -0.06110000
opls_234-36    C    0.07884994    0.53339009    0.38888889    0.46140000
opls_700-37    C    0.03932995    0.46679015    0.38888889    -0.06110000
opls_234-38    C    0.07858010    0.46686007    0.38888889    0.46120000
opls_521-39    C    0.14004005    0.50021994    0.38888889    0.18580000
opls_522-40    C    0.16122001    0.53352018    0.38888889    -0.18000000
opls_523-41    C    0.20025989    0.53358008    0.38888889    -0.04850000
opls_522-42    C    0.16094989    0.46699017    0.38888889    -0.18510000
opls_523-43    C    0.20000007    0.46705006    0.38888889    -0.04520000
opls_145-44    C    0.22033997    0.50034000    0.38888889    -0.23980000
opls_700-45    C    0.98024006    0.49997005    0.38888889    0.01150000
opls_523-46    C    0.97996988    0.43343001    0.38888889    -0.12480000
opls_523-47    C    0.98050990    0.56650007    0.38888889    -0.12480000
opls_700-48    C    0.96040990    0.46667008    0.38888889    -0.06110000
opls_234-49    C    0.92115006    0.46660991    0.38888889    0.46120000
opls_700-50    C    0.96066999    0.53320010    0.38888889    -0.06110000
opls_234-51    C    0.92141990    0.53313993    0.38888889    0.46140000
opls_521-52    C    0.85995995    0.49978006    0.38888889    0.18580000
opls_522-53    C    0.83877999    0.46648009    0.38888889    -0.18060000
opls_523-54    C    0.79974011    0.46641992    0.38888889    -0.04790000
opls_522-55    C    0.83905011    0.53301011    0.38888889    -0.18060000
opls_523-56    C    0.80000995    0.53294994    0.38888889    -0.04520000
opls_145-57    C    0.77966999    0.49964997    0.38888889    -0.23980000
opls_700-58    C    0.49993007    0.01977005    0.38888889    0.01150000
opls_523-59    C    0.43342989    0.01913990    0.38888889    -0.12450000
opls_523-60    C    0.56642992    0.02038988    0.38888889    -0.12480000
opls_700-61    C    0.46660000    0.03917014    0.38888889    -0.06110000
opls_234-62    C    0.46646002    0.07844001    0.38888889    0.46140000
opls_700-63    C    0.53310012    0.03978998    0.38888889    -0.06110000
opls_234-64    C    0.53295012    0.07906013    0.38888889    0.46120000
opls_521-65    C    0.49948006    0.14010998    0.38888889    0.18560000
opls_522-66    C    0.46615000    0.16085003    0.38888889    -0.18060000
opls_523-67    C    0.46600995    0.19991013    0.38888889    -0.04520000
opls_522-68    C    0.53264990    0.16147989    0.38888889    -0.18060000
opls_523-69    C    0.53250011    0.20053999    0.38888889    -0.04780000
opls_145-70    C    0.49918008    0.22044013    0.38888889    -0.23980000
opls_700-71    C    0.50007995    0.98022995    0.38888889    0.01150000
opls_523-72    C    0.56658008    0.98085007    0.38888889    -0.12450000
opls_523-73    C    0.43358011    0.97961012    0.38888889    -0.12450000
opls_700-74    C    0.53340000    0.96083014    0.38888889    -0.06110000
opls_234-75    C    0.53353998    0.92155999    0.38888889    0.46120000
opls_700-76    C    0.46689988    0.96021002    0.38888889    -0.06110000
opls_234-77    C    0.46705011    0.92093012    0.38888889    0.46120000
opls_521-78    C    0.50051994    0.85989002    0.38888889    0.18580000
opls_522-79    C    0.53384994    0.83913994    0.38888889    -0.18420000
opls_523-80    C    0.53400002    0.80008012    0.38888889    -0.04520000
opls_522-81    C    0.46735010    0.83852011    0.38888889    -0.18060000
opls_523-82    C    0.46749989    0.79946001    0.38888889    -0.04790000
opls_145-83    C    0.50081986    0.77955012    0.38888889    -0.23980000
opls_167-84    O    0.53179000    0.71633015    0.38888889    -0.34560000
opls_167-85    O    0.28388999    0.53120995    0.38888889    -0.34610000
opls_167-86    O    0.46820994    0.28366010    0.38888889    -0.34570000
opls_167-87    O    0.71611013    0.46881011    0.38888889    -0.34610000
opls_167-88    O    0.47034011    0.71578999    0.38888889    -0.34610000
opls_167-89    O    0.71633991    0.53029008    0.38888889    -0.34610000
opls_167-90    O    0.52966986    0.28419998    0.38888889    -0.34610000
opls_167-91    O    0.28366995    0.46972997    0.38888889    -0.34610000
opls_236-92    O    0.09551006    0.56408007    0.38888889    -0.49040000
opls_236-93    O    0.09500008    0.43620993    0.38888889    -0.49150000
opls_236-94    O    0.90448988    0.43590990    0.38888889    -0.49150000
opls_236-95    O    0.90500988    0.56378004    0.38888889    -0.49040000
opls_236-96    O    0.43574007    0.09469999    0.38888889    -0.49150000
opls_236-97    O    0.56354999    0.09590010    0.38888889    -0.49570000
opls_236-98    O    0.56425987    0.90528998    0.38888889    -0.49150000
opls_236-99    O    0.43646003    0.90410018    0.38888889    -0.49040000
opls_146-100    H    0.57062008    0.64993998    0.38888889    0.25860000
opls_146-101    H    0.35061008    0.57004997    0.38888889    0.25830000
opls_146-102    H    0.42938995    0.35006002    0.38888889    0.25860000
opls_146-103    H    0.64938992    0.42995003    0.38888889    0.25830000
opls_146-104    H    0.43186992    0.64876996    0.38888889    0.25860000
opls_146-105    H    0.64984992    0.56885014    0.38888889    0.25830000
opls_146-106    H    0.56813002    0.35122001    0.38888889    0.25860000
opls_146-107    H    0.35012001    0.43115014    0.38888889    0.25830000
opls_526-108    H    0.03527006    0.59280999    0.38888889    0.11620000
opls_525-109    H    0.14727999    0.56031009    0.38888889    0.11660000
opls_526-110    H    0.21549989    0.55983010    0.38888889    0.11620000
opls_526-111    H    0.03452007    0.40729002    0.38888889    0.11680000
opls_525-112    H    0.14678987    0.44014009    0.38888889    0.11600000
opls_526-113    H    0.21502002    0.44084015    0.38888889    0.11670000
opls_526-114    H    0.96472989    0.40717999    0.38888889    0.11620000
opls_525-115    H    0.85271996    0.43968016    0.38888889    0.11680000
opls_526-116    H    0.78450012    0.44017018    0.38888889    0.11620000
opls_526-117    H    0.96547987    0.59269995    0.38888889    0.11680000
opls_525-118    H    0.85321007    0.55985016    0.38888889    0.11680000
opls_526-119    H    0.78497992    0.55915010    0.38888889    0.11680000
opls_526-120    H    0.40715988    0.03403987    0.38888889    0.11670000
opls_525-121    H    0.43939991    0.14654009    0.38888889    0.11680000
opls_526-122    H    0.43973995    0.21481010    0.38888889    0.11670000
opls_526-123    H    0.59257994    0.03578014    0.38888889    0.11680000
opls_525-124    H    0.55949986    0.14767000    0.38888889    0.11620000
opls_526-125    H    0.55865008    0.21591995    0.38888889    0.11620000
opls_526-126    H    0.59284012    0.96596013    0.38888889    0.11660000
opls_525-127    H    0.56060003    0.85345016    0.38888889    0.11680000
opls_526-128    H    0.56026000    0.78518015    0.38888889    0.11680000
opls_526-129    H    0.40742006    0.96422014    0.38888889    0.11600000
opls_525-130    H    0.44049986    0.85233000    0.38888889    0.11620000
opls_526-131    H    0.44134986    0.78407003    0.38888889    0.11680000
opls_750-132    N    0.56743997    0.56940005    0.38888889    -0.40530000
opls_750-133    N    0.43255998    0.43058992    0.38888889    -0.40530000
opls_750-134    N    0.43179993    0.56721016    0.38888889    -0.39980000
opls_750-135    N    0.56820007    0.43279012    0.38888889    -0.39980000
opls_542-136    N    0.50155991    0.55297015    0.38888889    -0.35750000
opls_542-137    N    0.49844010    0.44703013    0.38888889    -0.35750000
opls_542-138    N    0.44438004    0.50079993    0.38888889    -0.35750000
opls_542-139    N    0.55562007    0.49922012    0.38888889    -0.35750000
opls_251-140    N    0.09869002    0.50015001    0.38888889    -0.20240000
opls_251-141    N    0.90131995    0.49983996    0.38888889    -0.20240000
opls_251-142    N    0.49962991    0.09872988    0.38888889    -0.20240000
opls_251-143    N    0.50037003    0.90126009    0.38888889    -0.20240000
MOF2_B_2-144    B    0.50098003    0.73753013    0.38888889    0.60040000
MOF2_B_2-145    B    0.49901997    0.26247015    0.38888889    0.60040000
MOF2_B_2-146    B    0.26234012    0.50040993    0.38888889    0.60040000
MOF2_B_2-147    B    0.73766010    0.49958005    0.38888889    0.60040000
F2_Ni4+2-148    Ni    0.50000000    0.50000014    0.39000000    0.41050000
