#======================================================================
# Crystal Data Generated By AuToFF
#----------------------------------------------------------------------

data_AuToFF_phase_1

_cell_length_a                         15.3800
_cell_length_b                         15.3700
_cell_length_c                         6.9600
_cell_angle_alpha                      90.00
_cell_angle_beta                       89.99
_cell_angle_gamma                      59.89
_symmetry_space_group_name_H-M_alt     'P 1'
_symmetry_space_group_IT_number        1

loop_
_space_group_symop_operation_xyz
   'x, y, z'

loop_
   _atom_site_label
   _atom_site_type_symbol
   _atom_site_fract_x
   _atom_site_fract_y
   _atom_site_fract_z
   _atom_site_charge
opls_700-0    C    0.34382050    0.13436943    0.99988937    -0.11200000
opls_231-1    C    0.41471066    0.16833972    0.99990948    0.39640000
opls_700-2    C    0.38356050    0.27284986    0.99981034    -0.10620000
opls_231-3    C    0.27859033    0.34396957    0.99963937    0.39640000
opls_700-4    C    0.20524044    0.31296934    0.99959052    -0.11080000
opls_231-5    C    0.23937030    0.20791994    0.99973994    0.34920000
opls_142-6    C    0.46264052    0.29930964    0.99988937    0.07510000
opls_142-7    C    0.37040974    0.02867999    0.00002011    0.07510000
opls_142-8    C    0.09948063    0.39206963    0.99939943    0.07510000
opls_141-9    C    0.49156990    0.51339009    0.00012931    0.52690000
opls_700-10    C    0.57351021    0.53974984    0.00014943    -0.02580000
opls_145-11    C    0.54158007    0.64307016    0.00027011    -0.05800000
opls_145-12    C    0.67694009    0.46991019    0.00004023    -0.05800000
opls_700-13    C    0.61115956    0.67677045    0.00030029    -0.02360000
opls_700-14    C    0.74821992    0.50184003    0.00005029    -0.02680000
opls_145-15    C    0.71443021    0.60524985    0.00020977    -0.05800000
opls_141-16    C    0.85673048    0.42023972    0.99997989    0.52890000
opls_141-17    C    0.58452998    0.78517048    0.00037931    0.52810000
opls_700-18    C    0.34381980    0.13437018    0.49988937    -0.11200000
opls_231-19    C    0.41471034    0.16833972    0.49990948    0.39640000
opls_700-20    C    0.38356018    0.27284986    0.49981034    -0.10620000
opls_231-21    C    0.27859066    0.34396957    0.49963937    0.39640000
opls_700-22    C    0.20524038    0.31297009    0.49959052    -0.11080000
opls_231-23    C    0.23936998    0.20791994    0.49973994    0.34920000
opls_142-24    C    0.46264020    0.29930964    0.49988937    0.07510000
opls_142-25    C    0.37041006    0.02867999    0.50002011    0.07510000
opls_142-26    C    0.09948031    0.39206963    0.49939943    0.07510000
opls_141-27    C    0.49157022    0.51339009    0.50012931    0.52680000
opls_700-28    C    0.57351054    0.53974984    0.50014943    -0.02580000
opls_145-29    C    0.54158039    0.64307016    0.50027011    -0.05800000
opls_145-30    C    0.67693977    0.46991019    0.50004023    -0.05800000
opls_700-31    C    0.61116026    0.67676970    0.50030029    -0.02360000
opls_700-32    C    0.74822024    0.50184003    0.50005029    -0.02680000
opls_145-33    C    0.71443053    0.60524985    0.50020977    -0.05800000
opls_141-34    C    0.85673016    0.42023972    0.49997989    0.52890000
opls_141-35    C    0.58453004    0.78516973    0.50037931    0.52790000
opls_144-36    H    0.54501027    0.23754007    0.99989943    0.03090000
opls_144-37    H    0.30877005    0.00810016    0.99997989    0.03090000
opls_144-38    H    0.07855032    0.47449948    0.99906034    0.03090000
opls_146-39    H    0.45789999    0.70104010    0.00034052    0.05240000
opls_146-40    H    0.70438969    0.38587006    0.99993966    0.05240000
opls_146-41    H    0.77222015    0.63100040    0.00027011    0.05240000
opls_144-42    H    0.54500994    0.23754007    0.49989943    0.03090000
opls_144-43    H    0.30877038    0.00810016    0.49997989    0.03090000
opls_144-44    H    0.07855027    0.47450023    0.49906034    0.03090000
opls_146-45    H    0.45790031    0.70104010    0.50034052    0.05240000
opls_146-46    H    0.70439002    0.38587006    0.49993966    0.05240000
opls_146-47    H    0.77222020    0.63099964    0.50027011    0.05240000
opls_750-48    N    0.44173021    0.39223964    0.99994971    -0.11220000
opls_750-49    N    0.46336970    0.95647047    0.00017960    -0.11220000
opls_750-50    N    0.51805030    0.41273974    0.00001006    -0.20560000
opls_750-51    N    0.48398994    0.85956035    0.00028017    -0.20520000
opls_750-52    N    0.02769079    0.37099944    0.99961063    -0.11200000
opls_750-53    N    0.93053043    0.44698979    0.99944971    -0.20560000
opls_750-54    N    0.44173054    0.39223964    0.49994971    -0.11220000
opls_750-55    N    0.46337040    0.95646972    0.50017960    -0.11210000
opls_750-56    N    0.51804998    0.41273974    0.50001006    -0.20560000
opls_750-57    N    0.48399064    0.85955960    0.50028017    -0.20520000
opls_750-58    N    0.02769009    0.37100020    0.49961063    -0.11200000
opls_750-59    N    0.93053011    0.44698979    0.49944971    -0.20560000
opls_272-60    O    0.40253013    0.57970989    0.00019971    -0.32790000
opls_272-61    O    0.88001028    0.33108983    0.00038937    -0.33170000
opls_272-62    O    0.65063001    0.80799008    0.00048994    -0.33260000
opls_272-63    O    0.24104094    0.44480944    0.99953017    -0.22650000
opls_272-64    O    0.51554009    0.10505016    0.00004023    -0.22650000
opls_272-65    O    0.17630071    0.17034933    0.99973994    -0.22380000
opls_272-66    O    0.40253046    0.57970989    0.50019971    -0.32790000
opls_272-67    O    0.88000996    0.33108983    0.50038937    -0.33170000
opls_272-68    O    0.65063034    0.80799008    0.50048994    -0.33260000
opls_272-69    O    0.24104023    0.44481019    0.49953017    -0.22650000
opls_272-70    O    0.51553976    0.10505016    0.50004023    -0.22650000
opls_272-71    O    0.17630001    0.17035008    0.49973994    -0.22380000
