#======================================================================
# Crystal Data Generated By AuToFF
#----------------------------------------------------------------------

data_AuToFF_phase_1

_cell_length_a                         23.5890
_cell_length_b                         23.5890
_cell_length_c                         6.9315
_cell_angle_alpha                      90.00
_cell_angle_beta                       90.00
_cell_angle_gamma                      120.00
_symmetry_space_group_name_H-M_alt     'P 1'
_symmetry_space_group_IT_number        1

loop_
_space_group_symop_operation_xyz
   'x, y, z'

loop_
   _atom_site_label
   _atom_site_type_symbol
   _atom_site_fract_x
   _atom_site_fract_y
   _atom_site_fract_z
   _atom_site_charge
opls_142-0    C    0.31743003    0.13044021    0.22859987    0.10080000
opls_145-1    C    0.20946986    0.11363980    0.27652023    0.23220000
opls_145-2    C    0.17248977    0.14003995    0.34940056    -0.10970000
opls_145-3    C    0.10426981    0.10285985    0.35038015    -0.13230000
opls_916-4    C    0.07129028    0.03862023    0.27769025    0.23400000
opls_145-5    C    0.10923007    0.01282022    0.20422996    -0.13250000
opls_145-6    C    0.17744002    0.04961997    0.20370050    -0.13230000
opls_700-7    C    0.38869028    0.17264022    0.22813965    0.07270000
opls_145-8    C    0.42799999    0.14491007    0.19377047    -0.09060000
opls_145-9    C    0.49611974    0.18422981    0.19287023    -0.07370000
opls_700-10    C    0.52582014    0.25193025    0.22532929    0.07790000
opls_145-11    C    0.48595008    0.27944012    0.25905937    -0.07370000
opls_145-12    C    0.41789006    0.24011010    0.26085984    -0.09200000
opls_700-13    C    0.59794998    0.29360991    0.22449975    0.08840000
opls_145-14    C    0.63799011    0.26537019    0.22451995    -0.07950000
opls_142-15    C    0.65041018    0.79867020    0.76751930    0.01620000
opls_145-16    C    0.54211994    0.77954022    0.83111015    0.22860000
opls_145-17    C    0.50511022    0.80203019    0.92751064    -0.10980000
opls_145-18    C    0.43677006    0.76503022    0.92696963    -0.13230000
opls_916-19    C    0.40416009    0.70494996    0.82879031    0.20260000
opls_145-20    C    0.44154998    0.68268027    0.73137993    -0.13230000
opls_145-21    C    0.50990012    0.71950009    0.73271009    -0.13230000
opls_700-22    C    0.72186034    0.84068028    0.77119960    0.06960000
opls_145-23    C    0.76102997    0.81439027    0.71687946    -0.09210000
opls_145-24    C    0.82920030    0.85337029    0.71906947    -0.07380000
opls_700-25    C    0.85915009    0.91937018    0.77455962    0.08050000
opls_145-26    C    0.81955008    0.94557012    0.82830989    -0.07380000
opls_145-27    C    0.75138983    0.90650003    0.82714997    -0.07370000
opls_700-28    C    0.93129010    0.96066998    0.77610041    0.08820000
opls_145-29    C    0.97093011    0.93202005    0.77622015    -0.08030000
opls_142-30    C    0.86956019    0.18699015    0.22859987    0.10080000
opls_145-31    C    0.88636005    0.09583003    0.27652023    0.23210000
opls_145-32    C    0.85995978    0.03244998    0.34940056    -0.10970000
opls_145-33    C    0.89714009    0.00140978    0.35038015    -0.13230000
opls_916-34    C    0.96138003    0.03266977    0.27769025    0.23400000
opls_145-35    C    0.98717999    0.09641009    0.20422996    -0.13250000
opls_145-36    C    0.95037990    0.12781987    0.20370050    -0.13240000
opls_700-37    C    0.82735976    0.21604980    0.22813965    0.07270000
opls_145-38    C    0.85508982    0.28308989    0.19377047    -0.09060000
opls_145-39    C    0.81576997    0.31189010    0.19287023    -0.07380000
opls_700-40    C    0.74807014    0.27389008    0.22532929    0.07790000
opls_145-41    C    0.72056023    0.20651026    0.25905937    -0.07370000
opls_145-42    C    0.75989007    0.17778005    0.26085984    -0.09200000
opls_700-43    C    0.70639015    0.30433993    0.22449975    0.08840000
opls_145-44    C    0.73462995    0.37261995    0.22451995    -0.07950000
opls_142-45    C    0.20133029    0.85174023    0.76751930    0.01620000
opls_145-46    C    0.22046007    0.76258024    0.83111015    0.22860000
opls_145-47    C    0.19797013    0.70308003    0.92751064    -0.10980000
opls_145-48    C    0.23497013    0.67174026    0.92696963    -0.13230000
opls_916-49    C    0.29504990    0.69920998    0.82879031    0.21180000
opls_145-50    C    0.31732016    0.75887025    0.73137993    -0.13230000
opls_145-51    C    0.28049991    0.79039996    0.73271009    -0.13230000
opls_700-52    C    0.15932003    0.88118022    0.77119960    0.06960000
opls_145-53    C    0.18561014    0.94664019    0.71687946    -0.09210000
opls_145-54    C    0.14663010    0.97583005    0.71906947    -0.07380000
opls_700-55    C    0.08063029    0.93978022    0.77455962    0.08060000
opls_145-56    C    0.05442993    0.87398005    0.82830989    -0.07380000
opls_145-57    C    0.09350018    0.84489005    0.82714997    -0.07360000
opls_700-58    C    0.03933020    0.97062021    0.77610041    0.08820000
opls_145-59    C    0.06798017    0.03891002    0.77622015    -0.08030000
opls_142-60    C    0.81301002    0.68257013    0.22859987    0.10080000
opls_145-61    C    0.90417008    0.79053017    0.27652023    0.23220000
opls_145-62    C    0.96755002    0.82751006    0.34940056    -0.10970000
opls_145-63    C    0.99859010    0.89573036    0.35038015    -0.13230000
opls_916-64    C    0.96733011    0.92870999    0.27769025    0.23400000
opls_145-65    C    0.90359018    0.89077018    0.20422996    -0.13250000
opls_145-66    C    0.87218007    0.82256016    0.20370050    -0.13240000
opls_700-67    C    0.78394996    0.61130999    0.22813965    0.07270000
opls_145-68    C    0.71691019    0.57200004    0.19377047    -0.09050000
opls_145-69    C    0.68810987    0.50388009    0.19287023    -0.07380000
opls_700-70    C    0.72610996    0.47418016    0.22532929    0.07790000
opls_145-71    C    0.79348993    0.51405011    0.25905937    -0.07360000
opls_145-72    C    0.82221987    0.58210985    0.26085984    -0.09190000
opls_700-73    C    0.69566029    0.40205016    0.22449975    0.08840000
opls_145-74    C    0.62737994    0.36200986    0.22451995    -0.07950000
opls_142-75    C    0.14826021    0.34959006    0.76751930    0.01620000
opls_145-76    C    0.23741981    0.45788003    0.83111015    0.22870000
opls_145-77    C    0.29692031    0.49489027    0.92751064    -0.10980000
opls_145-78    C    0.32826005    0.56323001    0.92696963    -0.13230000
opls_916-79    C    0.30079001    0.59584006    0.82879031    0.20270000
opls_145-80    C    0.24113011    0.55844996    0.73137993    -0.13230000
opls_145-81    C    0.20959997    0.49009994    0.73271009    -0.13230000
opls_700-82    C    0.11881988    0.27813999    0.77119960    0.06960000
opls_145-83    C    0.05336013    0.23897004    0.71687946    -0.09210000
opls_145-84    C    0.02417027    0.17080015    0.71906947    -0.07370000
opls_700-85    C    0.06021986    0.14085009    0.77455962    0.08050000
opls_145-86    C    0.12601999    0.18044983    0.82830989    -0.07380000
opls_145-87    C    0.15511000    0.24860992    0.82714997    -0.07370000
opls_700-88    C    0.02937970    0.06870981    0.77610041    0.08820000
opls_145-89    C    0.96109014    0.02906993    0.77622015    -0.08030000
opls_750-90    N    0.27928994    0.15293996    0.27660968    -0.27970000
opls_750-91    N    0.61208023    0.81869011    0.83427974    -0.27980000
opls_750-92    N    0.84705980    0.12634988    0.27660968    -0.27960000
opls_750-93    N    0.18131005    0.79339037    0.83427974    -0.27980000
opls_750-94    N    0.87365026    0.72071016    0.27660968    -0.27970000
opls_750-95    N    0.20660997    0.38792002    0.83427974    -0.27970000
opls_239-96    N    0.00000000    0.00000000    0.27811008    -0.12350000
opls_239-97    N    0.33332988    0.66666993    0.82825940    -0.12050000
opls_144-98    H    0.29562014    0.07688019    0.18567987    0.02970000
opls_146-99    H    0.19799979    0.19212998    0.40838058    0.05020000
opls_146-100    H    0.07424012    0.12449024    0.41089952    0.05020000
opls_146-101    H    0.08431981    0.96095977    0.14366010    0.05020000
opls_146-102    H    0.20714004    0.02752015    0.14387939    0.05020000
opls_146-103    H    0.40451992    0.09006998    0.16636947    0.05020000
opls_146-104    H    0.52809023    0.16142020    0.16562072    0.05020000
opls_146-105    H    0.50911018    0.33431007    0.28524995    0.05020000
opls_146-106    H    0.38606003    0.26302006    0.28903989    0.05030000
opls_146-107    H    0.61502005    0.20985018    0.22456034    0.05020000
opls_144-108    H    0.62875000    0.74738003    0.70415062    0.02970000
opls_146-109    H    0.53064001    0.85083023    0.00719036    0.05020000
opls_146-110    H    0.40691030    0.78353021    0.00675034    0.05020000
opls_146-111    H    0.41618006    0.63414995    0.65025031    0.05020000
opls_146-112    H    0.53950014    0.70060019    0.65344009    0.05020000
opls_146-113    H    0.73740016    0.76095996    0.67056048    0.05020000
opls_146-114    H    0.86097002    0.83161997    0.67556950    0.04960000
opls_146-115    H    0.84296001    0.99911007    0.87334055    0.05020000
opls_146-116    H    0.71980023    0.92830028    0.87188055    0.05020000
opls_146-117    H    0.94763009    0.87645990    0.77641059    0.05020000
opls_144-118    H    0.92312012    0.21874013    0.18567987    0.02980000
opls_146-119    H    0.80787002    0.00587018    0.40838058    0.05020000
opls_146-120    H    0.87551006    0.94975003    0.41089952    0.05020000
opls_146-121    H    0.03904019    0.12335996    0.14366010    0.05020000
opls_146-122    H    0.97247994    0.17962011    0.14387939    0.05020000
opls_146-123    H    0.90993019    0.31445023    0.16636947    0.05020000
opls_146-124    H    0.83857981    0.36666998    0.16562072    0.05030000
opls_146-125    H    0.66568984    0.17479993    0.28524995    0.05020000
opls_146-126    H    0.73698009    0.12303983    0.28903989    0.05020000
opls_146-127    H    0.79015011    0.40517028    0.22456034    0.05020000
opls_144-128    H    0.25261988    0.88137015    0.70415062    0.02970000
opls_146-129    H    0.14917005    0.67981029    0.00719036    0.05020000
opls_146-130    H    0.21647033    0.62338028    0.00675034    0.05020000
opls_146-131    H    0.36585006    0.78203035    0.65025031    0.05020000
opls_146-132    H    0.29939995    0.83889994    0.65344009    0.05020000
opls_146-133    H    0.23903986    0.97643997    0.67056048    0.05020000
opls_146-134    H    0.16838008    0.02934993    0.67556950    0.04960000
opls_146-135    H    0.00089036    0.84385033    0.87334055    0.05030000
opls_146-136    H    0.07169975    0.79149989    0.87188055    0.05020000
opls_146-137    H    0.12354002    0.07117008    0.77641059    0.05020000
opls_144-138    H    0.78125999    0.70438017    0.18567987    0.02970000
opls_146-139    H    0.99413001    0.80200033    0.40838058    0.05020000
opls_146-140    H    0.05025007    0.92576022    0.41089952    0.05020000
opls_146-141    H    0.87664000    0.91568027    0.14366010    0.05020000
opls_146-142    H    0.82038026    0.79286023    0.14387939    0.05020000
opls_146-143    H    0.68555013    0.59548027    0.16636947    0.05020000
opls_146-144    H    0.63333020    0.47191031    0.16562072    0.05020000
opls_146-145    H    0.82519998    0.49089001    0.28524995    0.05020000
opls_146-146    H    0.87695988    0.61394011    0.28903989    0.05030000
opls_146-147    H    0.59483009    0.38498003    0.22456034    0.05020000
opls_144-148    H    0.11862970    0.37124982    0.70415062    0.02970000
opls_146-149    H    0.32019018    0.46935997    0.00719036    0.05020000
opls_146-150    H    0.37662004    0.59309001    0.00675034    0.05020000
opls_146-151    H    0.21797012    0.58382019    0.65025031    0.05030000
opls_146-152    H    0.16109991    0.46049988    0.65344009    0.05020000
opls_146-153    H    0.02355998    0.26260006    0.67056048    0.05020000
opls_146-154    H    0.97064990    0.13903010    0.67556950    0.04960000
opls_146-155    H    0.15614987    0.15704008    0.87334055    0.05020000
opls_146-156    H    0.20850002    0.28019984    0.87188055    0.05020000
opls_146-157    H    0.92882989    0.05237003    0.77641059    0.05020000
