#======================================================================
# Crystal Data Generated By AuToFF
#----------------------------------------------------------------------

data_AuToFF_phase_1

_cell_length_a                         44.4000
_cell_length_b                         44.4000
_cell_length_c                         5.6000
_cell_angle_alpha                      90.00
_cell_angle_beta                       90.00
_cell_angle_gamma                      120.00
_symmetry_space_group_name_H-M_alt     'P 1'
_symmetry_space_group_IT_number        1

loop_
_space_group_symop_operation_xyz
   'x, y, z'

loop_
   _atom_site_label
   _atom_site_type_symbol
   _atom_site_fract_x
   _atom_site_fract_y
   _atom_site_fract_z
   _atom_site_charge
opls_145-0    C    0.67464003    0.30653007    0.12266071    -0.10370000
opls_700-1    C    0.70204996    0.34143011    0.12238929    0.04620000
opls_145-2    C    0.87549992    0.39408003    0.25886071    -0.20200000
opls_145-3    C    0.91178999    0.41312998    0.22988929    -0.22710000
opls_700-4    C    0.92670005    0.43695010    0.03986071    0.07600000
opls_145-5    C    0.90469989    0.44108986    0.87816964    -0.22750000
opls_145-6    C    0.86843996    0.42212000    0.90823929    -0.20190000
opls_700-7    C    0.85313999    0.39837999    0.09971964    0.00110000
opls_700-8    C    0.96309999    0.45644998    0.01351071    0.01670000
opls_145-9    C    0.97871000    0.44036999    0.88653929    -0.22820000
opls_145-10    C    0.01476986    0.45751990    0.85353929    -0.22850000
opls_700-11    C    0.03614005    0.49104002    0.94813929    0.07570000
opls_145-12    C    0.02018004    0.50692989    0.07446071    -0.10520000
opls_700-13    C    0.98371004    0.49073990    0.10915000    0.04350000
opls_700-14    C    0.07259990    0.50822997    0.91743929    0.07460000
opls_145-15    C    0.09160989    0.49139995    0.97215000    -0.22710000
opls_145-16    C    0.12793003    0.50867989    0.94505000    -0.20200000
opls_700-17    C    0.14678012    0.54348006    0.86266071    -0.03050000
opls_145-18    C    0.12747997    0.56001985    0.80533929    -0.20200000
opls_145-19    C    0.09115990    0.54279999    0.83263036    -0.22710000
opls_234-20    C    0.81674002    0.37949985    0.13110000    0.35580000
opls_142-21    C    0.73679011    0.34870004    0.12300000    0.02500000
opls_234-22    C    0.18342006    0.56080993    0.84048929    0.35580000
opls_142-23    C    0.26337009    0.61141000    0.80656071    0.02470000
opls_145-24    C    0.30633009    0.67432999    0.80151071    -0.10140000
opls_700-25    C    0.29801997    0.63914986    0.80220000    0.04240000
opls_136-26    C    0.95176994    0.54742997    0.45046964    -0.14650000
opls_136-27    C    0.95920998    0.58321997    0.55371964    -0.21950000
opls_136-28    C    0.92920984    0.58014987    0.71378929    -0.16790000
opls_136-29    C    0.93821992    0.61462002    0.84183929    -0.16730000
opls_136-30    C    0.90854993    0.61063994    0.00865000    -0.16820000
opls_136-31    C    0.91808003    0.64436006    0.14890000    -0.16660000
opls_136-32    C    0.88830998    0.64007986    0.31588036    -0.16730000
opls_136-33    C    0.89791997    0.67349986    0.46028036    -0.16660000
opls_136-34    C    0.86798983    0.66915985    0.62583036    -0.16730000
opls_136-35    C    0.87757998    0.70245995    0.77173036    -0.16730000
opls_136-36    C    0.84764000    0.69798991    0.93756071    -0.14260000
opls_135-37    C    0.85711994    0.73102007    0.08396964    -0.45270000
opls_701-38    C    0.54180013    0.03452008    0.23585000    -0.14460000
opls_135-39    C    0.00077013    0.57176008    0.16576964    -0.34770000
opls_135-40    C    0.00571997    0.54678995    0.55116071    -0.34770000
opls_145-41    C    0.69347005    0.36810993    0.12266071    -0.10370000
opls_700-42    C    0.65856990    0.36061998    0.12238929    0.04620000
opls_145-43    C    0.60591984    0.48141986    0.25886071    -0.20200000
opls_145-44    C    0.58687009    0.49866000    0.22988929    -0.22710000
opls_700-45    C    0.56305004    0.48975008    0.03986071    0.07600000
opls_145-46    C    0.55890991    0.46360990    0.87816964    -0.22750000
opls_145-47    C    0.57788009    0.44632008    0.90823929    -0.20200000
opls_700-48    C    0.60162012    0.45476006    0.09971964    0.00110000
opls_700-49    C    0.54355003    0.50665006    0.01351071    0.01670000
opls_145-50    C    0.55962995    0.53834009    0.88653929    -0.22820000
opls_145-51    C    0.54247989    0.55724987    0.85353929    -0.22850000
opls_700-52    C    0.50895992    0.54510003    0.94813929    0.07570000
opls_145-53    C    0.49307007    0.51325006    0.07446071    -0.10520000
opls_700-54    C    0.50925999    0.49296998    0.10915000    0.04350000
opls_700-55    C    0.49176991    0.56437000    0.91743929    0.07460000
opls_145-56    C    0.50860001    0.60020993    0.97215000    -0.22710000
opls_145-57    C    0.49132005    0.61925000    0.94505000    -0.20200000
opls_700-58    C    0.45652007    0.60330005    0.86266071    -0.03050000
opls_145-59    C    0.43997993    0.56745986    0.80533929    -0.20200000
opls_145-60    C    0.45720003    0.54835997    0.83263036    -0.22710000
opls_234-61    C    0.62049999    0.43724008    0.13110000    0.35580000
opls_142-62    C    0.65129990    0.38808989    0.12300000    0.02500000
opls_234-63    C    0.43918995    0.62261008    0.84048929    0.35570000
opls_142-64    C    0.38858992    0.65196001    0.80656071    0.02470000
opls_145-65    C    0.32567008    0.63200008    0.80151071    -0.10140000
opls_700-66    C    0.36085010    0.65887001    0.80220000    0.04240000
opls_136-67    C    0.45256998    0.40433996    0.45046964    -0.14650000
opls_136-68    C    0.41677990    0.37598998    0.55371964    -0.21960000
opls_136-69    C    0.41985003    0.34905997    0.71378929    -0.16790000
opls_136-70    C    0.38537989    0.32359987    0.84183929    -0.16730000
opls_136-71    C    0.38935989    0.29790986    0.00865000    -0.16820000
opls_136-72    C    0.35563992    0.27371993    0.14890000    -0.16660000
opls_136-73    C    0.35991991    0.24822991    0.31588036    -0.16730000
opls_136-74    C    0.32650006    0.22441994    0.46028036    -0.16660000
opls_136-75    C    0.33084003    0.19883006    0.62583036    -0.16730000
opls_136-76    C    0.29753993    0.17511995    0.77173036    -0.16730000
opls_136-77    C    0.30200989    0.14964996    0.93756071    -0.14270000
opls_135-78    C    0.26897998    0.12610005    0.08396964    -0.45270000
opls_701-79    C    0.96548006    0.50727994    0.23585000    -0.14460000
opls_135-80    C    0.42823990    0.42900998    0.16576964    -0.34770000
opls_135-81    C    0.45321004    0.45892998    0.55116071    -0.34780000
opls_145-82    C    0.63188991    0.32536001    0.12266071    -0.10370000
opls_700-83    C    0.63937991    0.29794991    0.12238929    0.04620000
opls_145-84    C    0.51858001    0.12450012    0.25886071    -0.20200000
opls_145-85    C    0.50133992    0.08821001    0.22988929    -0.22710000
opls_700-86    C    0.51025004    0.07330007    0.03986071    0.07600000
opls_145-87    C    0.53639008    0.09529998    0.87816964    -0.22750000
opls_145-88    C    0.55367996    0.13155991    0.90823929    -0.20200000
opls_700-89    C    0.54523989    0.14685996    0.09971964    0.00110000
opls_700-90    C    0.49334998    0.03689996    0.01351071    0.01670000
opls_145-91    C    0.46166005    0.02128992    0.88653929    -0.22820000
opls_145-92    C    0.44274990    0.98522998    0.85353929    -0.22850000
opls_700-93    C    0.45490002    0.96385996    0.94813929    0.07570000
opls_145-94    C    0.48675011    0.97982005    0.07446071    -0.10520000
opls_700-95    C    0.50702997    0.01629012    0.10915000    0.04350000
opls_700-96    C    0.43562997    0.92740003    0.91743929    0.07460000
opls_145-97    C    0.39978998    0.90838986    0.97215000    -0.22710000
opls_145-98    C    0.38075002    0.87206985    0.94505000    -0.20200000
opls_700-99    C    0.39670003    0.85321988    0.86266071    -0.03050000
opls_145-100    C    0.43253997    0.87252003    0.80533929    -0.20200000
opls_145-101    C    0.45164006    0.90884004    0.83263036    -0.22710000
opls_234-102    C    0.56275999    0.18326007    0.13110000    0.35580000
opls_142-103    C    0.61190999    0.26321007    0.12300000    0.02500000
opls_234-104    C    0.37739000    0.81657999    0.84048929    0.35570000
opls_142-105    C    0.34803999    0.73662999    0.80656071    0.02470000
opls_145-106    C    0.36800005    0.69366993    0.80151071    -0.10140000
opls_700-107    C    0.34113002    0.70197987    0.80220000    0.04240000
opls_136-108    C    0.59566008    0.04823007    0.45046964    -0.14650000
opls_136-109    C    0.62401012    0.04079005    0.55371964    -0.21950000
opls_136-110    C    0.65094000    0.07078990    0.71378929    -0.16790000
opls_136-111    C    0.67639997    0.06178012    0.84183929    -0.16730000
opls_136-112    C    0.70209006    0.09144994    0.00865000    -0.16820000
opls_136-113    C    0.72628005    0.08192002    0.14890000    -0.16660000
opls_136-114    C    0.75176998    0.11168996    0.31588036    -0.16730000
opls_136-115    C    0.77558006    0.10207994    0.46028036    -0.16660000
opls_136-116    C    0.80117014    0.13201009    0.62583036    -0.16730000
opls_136-117    C    0.82488009    0.12242010    0.77173036    -0.16720000
opls_136-118    C    0.85034998    0.15235987    0.93756071    -0.14270000
opls_135-119    C    0.87389985    0.14287988    0.08396964    -0.45260000
opls_701-120    C    0.49272003    0.45819997    0.23585000    -0.14460000
opls_135-121    C    0.57098997    0.99922994    0.16576964    -0.34760000
opls_135-122    C    0.54106999    0.99428007    0.55116071    -0.34780000
opls_236-123    O    0.80319998    0.34994004    0.22458036    -0.60950000
opls_236-124    O    0.19816988    0.54306994    0.82910000    -0.60960000
opls_236-125    O    0.65005995    0.45325999    0.22458036    -0.60960000
opls_236-126    O    0.45692999    0.65510007    0.82910000    -0.60960000
opls_236-127    O    0.54674008    0.19679997    0.22458036    -0.60960000
opls_236-128    O    0.34489991    0.80182999    0.82910000    -0.60950000
opls_238-129    N    0.79718995    0.39377991    0.06566071    -0.27600000
opls_750-130    N    0.76355995    0.38066990    0.07045000    -0.11230000
opls_238-131    N    0.20246007    0.59608005    0.83530000    -0.27610000
opls_750-132    N    0.23602992    0.61679002    0.82195000    -0.04020000
opls_288-133    N    0.98182995    0.54355991    0.34866071    0.13280000
opls_238-134    N    0.60622007    0.40340996    0.06566071    -0.27600000
opls_750-135    N    0.61932996    0.38289010    0.07045000    -0.11230000
opls_238-136    N    0.40391997    0.60638003    0.83530000    -0.27610000
opls_750-137    N    0.38321002    0.61923986    0.82195000    -0.04020000
opls_288-138    N    0.45643993    0.43826995    0.34866071    0.13270000
opls_238-139    N    0.59658985    0.20280988    0.06566071    -0.27600000
opls_750-140    N    0.61711009    0.23644001    0.07045000    -0.11230000
opls_238-141    N    0.39361996    0.79753992    0.83530000    -0.27610000
opls_750-142    N    0.38075993    0.76396986    0.82195000    -0.04020000
opls_288-143    N    0.56172999    0.01816989    0.34866071    0.13270000
opls_146-144    H    0.68052997    0.28700002    0.12341071    0.19820000
opls_146-145    H    0.86559993    0.37718005    0.39946071    0.19820000
opls_146-146    H    0.92723000    0.40960009    0.34906964    0.19820000
opls_146-147    H    0.91488996    0.45802001    0.73813929    0.19820000
opls_146-148    H    0.85333007    0.42577005    0.78698036    0.19830000
opls_146-149    H    0.96396999    0.41594990    0.81633929    0.19820000
opls_146-150    H    0.02525005    0.44526993    0.75888036    0.19820000
opls_146-151    H    0.03614990    0.53092998    0.14123929    0.19810000
opls_146-152    H    0.07920007    0.46641005    0.03473929    0.19820000
opls_146-153    H    0.14048998    0.49542996    0.98878929    0.19820000
opls_146-154    H    0.13953985    0.58490989    0.74148036    0.19820000
opls_146-155    H    0.07836992    0.55582002    0.78875000    0.19820000
opls_910-156    H    0.81008001    0.41751993    0.00826071    0.21860000
opls_144-157    H    0.74165995    0.32905999    0.16033036    0.09680000
opls_910-158    H    0.18931011    0.60804004    0.84558036    0.21860000
opls_144-159    H    0.25899001    0.58658992    0.80035000    0.09680000
opls_146-160    H    0.28664998    0.68000987    0.80163036    0.19820000
opls_140-161    H    0.93886999    0.52793998    0.59083036    0.06620000
opls_140-162    H    0.93193985    0.54105987    0.31290000    0.06530000
opls_140-163    H    0.96297990    0.60089989    0.40641964    0.10450000
opls_140-164    H    0.98307004    0.59499999    0.65775000    0.08040000
opls_140-165    H    0.92319006    0.56029994    0.84993929    0.10070000
opls_140-166    H    0.90602994    0.57174006    0.60383929    0.10390000
opls_140-167    H    0.94348998    0.63457995    0.70821071    0.09710000
opls_140-168    H    0.96178003    0.62317988    0.94796071    0.09440000
opls_140-169    H    0.90249999    0.58975989    0.13638929    0.09440000
opls_140-170    H    0.88530005    0.60326000    0.90160000    0.09440000
opls_140-171    H    0.92414993    0.66534986    0.02231071    0.10240000
opls_140-172    H    0.94129990    0.65162999    0.25595000    0.09160000
opls_140-173    H    0.88199003    0.61878006    0.44041071    0.10070000
opls_140-174    H    0.86521984    0.63316986    0.20840000    0.10420000
opls_140-175    H    0.90441985    0.69486988    0.33616964    0.09710000
opls_140-176    H    0.92089995    0.68028008    0.56866071    0.10420000
opls_140-177    H    0.86139004    0.64768008    0.74916071    0.10420000
opls_140-178    H    0.84506002    0.66252994    0.51721071    0.10390000
opls_140-179    H    0.88406008    0.72393998    0.64856071    0.09160000
opls_140-180    H    0.90055008    0.70916008    0.88006071    0.10450000
opls_140-181    H    0.84097993    0.67654005    0.06118929    0.10230000
opls_140-182    H    0.82465008    0.69151006    0.83003036    0.10390000
opls_140-183    H    0.86245999    0.75261999    0.96526964    0.09830000
opls_140-184    H    0.87999999    0.73824006    0.19398929    0.09460000
opls_140-185    H    0.83549995    0.72624990    0.20073036    0.09830000
opls_702-186    H    0.53828989    0.04961987    0.37630000    0.07600000
opls_702-187    H    0.55927994    0.05319996    0.10330000    0.06790000
opls_140-188    H    0.98295010    0.57017003    0.02648929    0.08370000
opls_140-189    H    0.02191998    0.57044986    0.07956071    0.09340000
opls_140-190    H    0.01238999    0.59767999    0.24451071    0.11070000
opls_140-191    H    0.99109989    0.52898987    0.69533929    0.08380000
opls_140-192    H    0.01940002    0.57301985    0.62466071    0.08840000
opls_140-193    H    0.02566996    0.54082009    0.50028036    0.09320000
opls_146-194    H    0.71299990    0.39352998    0.12341071    0.19820000
opls_146-195    H    0.62281996    0.48842010    0.39946071    0.19820000
opls_146-196    H    0.59039984    0.51762986    0.34906964    0.19820000
opls_146-197    H    0.54198004    0.45686999    0.73813929    0.19820000
opls_146-198    H    0.57423005    0.42756010    0.78698036    0.19820000
opls_146-199    H    0.58405012    0.54802007    0.81633929    0.19820000
opls_146-200    H    0.55473011    0.57998004    0.75888036    0.19820000
opls_146-201    H    0.46906988    0.50521995    0.14123929    0.19810000
opls_146-202    H    0.53359001    0.61278992    0.03473929    0.19820000
opls_146-203    H    0.50457004    0.64505990    0.98878929    0.19820000
opls_146-204    H    0.41508997    0.55462995    0.74148036    0.19820000
opls_146-205    H    0.44417999    0.52255008    0.78875000    0.19820000
opls_910-206    H    0.58247997    0.39255993    0.00826071    0.21860000
opls_144-207    H    0.67094007    0.41259997    0.16033036    0.09690000
opls_910-208    H    0.39195999    0.58126998    0.84558036    0.21850000
opls_144-209    H    0.41340993    0.67240003    0.80035000    0.09680000
opls_146-210    H    0.31998996    0.60663984    0.80163036    0.19830000
opls_140-211    H    0.47206008    0.41093007    0.59083036    0.06620000
opls_140-212    H    0.45893995    0.39087989    0.31290000    0.06530000
opls_140-213    H    0.39909991    0.36208000    0.40641964    0.10450000
opls_140-214    H    0.40500002    0.38806986    0.65775000    0.08050000
opls_140-215    H    0.43969988    0.36288985    0.84993929    0.10070000
opls_140-216    H    0.42826006    0.33428995    0.60383929    0.10390000
opls_140-217    H    0.36542006    0.30890994    0.70821071    0.09710000
opls_140-218    H    0.37682007    0.33860005    0.94796071    0.09440000
opls_140-219    H    0.41024003    0.31273996    0.13638929    0.09440000
opls_140-220    H    0.39674005    0.28204001    0.90160000    0.09440000
opls_140-221    H    0.33465005    0.25880010    0.02231071    0.10240000
opls_140-222    H    0.34836985    0.28966988    0.25595000    0.09160000
opls_140-223    H    0.38122013    0.26321007    0.44041071    0.10070000
opls_140-224    H    0.36682999    0.23205006    0.20840000    0.10420000
opls_140-225    H    0.30512998    0.20955005    0.33616964    0.09710000
opls_140-226    H    0.31971995    0.24062007    0.56866071    0.10420000
opls_140-227    H    0.35232014    0.21371009    0.74916071    0.10420000
opls_140-228    H    0.33746998    0.18253006    0.51721071    0.10390000
opls_140-229    H    0.27606001    0.16012003    0.64856071    0.09170000
opls_140-230    H    0.29084007    0.19139004    0.88006071    0.10450000
opls_140-231    H    0.32346010    0.16444001    0.06118929    0.10230000
opls_140-232    H    0.30849009    0.13314009    0.83003036    0.10390000
opls_140-233    H    0.24737996    0.10984010    0.96526964    0.09830000
opls_140-234    H    0.26175997    0.14176003    0.19398929    0.09460000
opls_140-235    H    0.27375000    0.10925001    0.20073036    0.09830000
opls_702-236    H    0.95038006    0.48867002    0.37630000    0.07600000
opls_702-237    H    0.94679991    0.50607999    0.10330000    0.06790000
opls_140-238    H    0.42983006    0.41277993    0.02648929    0.08370000
opls_140-239    H    0.42955006    0.45146994    0.07956071    0.09340000
opls_140-240    H    0.40232004    0.41470990    0.24451071    0.11060000
opls_140-241    H    0.47101000    0.46211009    0.69533929    0.08380000
opls_140-242    H    0.42698004    0.44637990    0.62466071    0.08840000
opls_140-243    H    0.45917990    0.48484989    0.50028036    0.09320000
opls_146-244    H    0.60646991    0.31946999    0.12341071    0.19820000
opls_146-245    H    0.51158001    0.13440011    0.39946071    0.19820000
opls_146-246    H    0.48236994    0.07277006    0.34906964    0.19830000
opls_146-247    H    0.54313000    0.08511001    0.73813929    0.19820000
opls_146-248    H    0.57244001    0.14667011    0.78698036    0.19820000
opls_146-249    H    0.45198011    0.03603004    0.81633929    0.19820000
opls_146-250    H    0.42002006    0.97475003    0.75888036    0.19830000
opls_146-251    H    0.49477999    0.96385007    0.14123929    0.19810000
opls_146-252    H    0.38720993    0.92080003    0.03473929    0.19820000
opls_146-253    H    0.35493985    0.85950988    0.98878929    0.19820000
opls_146-254    H    0.44537004    0.86045991    0.74148036    0.19820000
opls_146-255    H    0.47744986    0.92162991    0.78875000    0.19820000
opls_910-256    H    0.60743990    0.18991988    0.00826071    0.21850000
opls_144-257    H    0.58739998    0.25834005    0.16033036    0.09680000
opls_910-258    H    0.41872990    0.81068998    0.84558036    0.21850000
opls_144-259    H    0.32760007    0.74101005    0.80035000    0.09690000
opls_146-260    H    0.39335992    0.71335003    0.80163036    0.19820000
opls_140-261    H    0.58906993    0.06112995    0.59083036    0.06620000
opls_140-262    H    0.60912008    0.06805997    0.31290000    0.06530000
opls_140-263    H    0.63791997    0.03702011    0.40641964    0.10450000
opls_140-264    H    0.61193003    0.01692989    0.65775000    0.08040000
opls_140-265    H    0.63710993    0.07680995    0.84993929    0.10070000
opls_140-266    H    0.66571000    0.09396999    0.60383929    0.10390000
opls_140-267    H    0.69108996    0.05651011    0.70821071    0.09720000
opls_140-268    H    0.66140012    0.03822007    0.94796071    0.09440000
opls_140-269    H    0.68725986    0.09749989    0.13638929    0.09440000
opls_140-270    H    0.71795990    0.11469999    0.90160000    0.09440000
opls_140-271    H    0.74120002    0.07585004    0.02231071    0.10240000
opls_140-272    H    0.71032989    0.05869987    0.25595000    0.09160000
opls_140-273    H    0.73678984    0.11800987    0.44041071    0.10070000
opls_140-274    H    0.76794995    0.13478007    0.20840000    0.10420000
opls_140-275    H    0.79044995    0.09558007    0.33616964    0.09710000
opls_140-276    H    0.75938001    0.07910010    0.56866071    0.10430000
opls_140-277    H    0.78628995    0.13861009    0.74916071    0.10420000
opls_140-278    H    0.81747000    0.15494000    0.51721071    0.10390000
opls_140-279    H    0.83987990    0.11593999    0.64856071    0.09160000
opls_140-280    H    0.80860985    0.09944988    0.88006071    0.10450000
opls_140-281    H    0.83555997    0.15901994    0.06118929    0.10230000
opls_140-282    H    0.86685996    0.17535011    0.83003036    0.10390000
opls_140-283    H    0.89016005    0.13753991    0.96526964    0.09840000
opls_140-284    H    0.85824004    0.11999991    0.19398929    0.09460000
opls_140-285    H    0.89075004    0.16450009    0.20073036    0.09830000
opls_702-286    H    0.51132992    0.46170985    0.37630000    0.07600000
opls_702-287    H    0.49391993    0.44072004    0.10330000    0.06790000
opls_140-288    H    0.58722006    0.01705004    0.02648929    0.08370000
opls_140-289    H    0.54853006    0.97807994    0.07956071    0.09340000
opls_140-290    H    0.58528984    0.98760986    0.24451071    0.11060000
opls_140-291    H    0.53789011    0.00890004    0.69533929    0.08380000
opls_140-292    H    0.55362004    0.98059999    0.62466071    0.08840000
opls_140-293    H    0.51514992    0.97433002    0.50028036    0.09320000
