#======================================================================
# Crystal Data Generated By AuToFF
#----------------------------------------------------------------------

data_AuToFF_phase_1

_cell_length_a                         37.6143
_cell_length_b                         37.4655
_cell_length_c                         7.1844
_cell_angle_alpha                      90.00
_cell_angle_beta                       90.00
_cell_angle_gamma                      120.00
_symmetry_space_group_name_H-M_alt     'P 1'
_symmetry_space_group_IT_number        1

loop_
_space_group_symop_operation_xyz
   'x, y, z'

loop_
   _atom_site_label
   _atom_site_type_symbol
   _atom_site_fract_x
   _atom_site_fract_y
   _atom_site_fract_z
   _atom_site_charge
opls_142-0    C    0.32363022    0.79966017    0.26724987    0.06930000
opls_700-1    C    0.41433006    0.61862007    0.23628974    0.06760000
opls_145-2    C    0.45730011    0.64262020    0.25031039    -0.17670000
opls_700-3    C    0.47726006    0.68583006    0.26351957    0.06760000
opls_145-4    C    0.45323012    0.70497999    0.26128000    -0.17170000
opls_700-5    C    0.41012010    0.68197997    0.24837008    0.06760000
opls_145-6    C    0.39125016    0.63877012    0.23653054    -0.17460000
opls_700-7    C    0.38494003    0.70298005    0.24734007    0.06140000
opls_700-8    C    0.39350999    0.57260001    0.22111937    0.06740000
opls_700-9    C    0.52307998    0.71093017    0.27982991    0.06740000
opls_145-10    C    0.40031001    0.74275005    0.32395050    -0.13220000
opls_145-11    C    0.37712991    0.76248002    0.32060993    -0.16850000
opls_145-12    C    0.33739003    0.74261012    0.24441985    0.18770000
opls_145-13    C    0.32148009    0.70287002    0.17266995    -0.16920000
opls_145-14    C    0.34502998    0.68356014    0.17060993    -0.13160000
opls_145-15    C    0.54577010    0.69427022    0.36095011    -0.13220000
opls_145-16    C    0.58851996    0.71755008    0.37462975    -0.17030000
opls_145-17    C    0.60974001    0.75846012    0.31008992    0.18880000
opls_145-18    C    0.58740994    0.77545015    0.23313012    -0.16870000
opls_145-19    C    0.54480012    0.75194007    0.21502979    -0.13160000
opls_145-20    C    0.41381016    0.55320013    0.14186988    -0.13200000
opls_145-21    C    0.39436007    0.51029015    0.12895023    -0.17080000
opls_145-22    C    0.35383014    0.48564002    0.18865041    0.18890000
opls_145-23    C    0.33331996    0.50456003    0.26876009    -0.16830000
opls_145-24    C    0.35305996    0.54739018    0.28644981    -0.13200000
opls_700-25    C    0.29376994    0.81426009    0.26155977    0.05880000
opls_145-26    C    0.25177022    0.78692026    0.23060938    -0.12660000
opls_145-27    C    0.22406018    0.80145022    0.22597016    -0.11930000
opls_700-28    C    0.23774999    0.84345007    0.25196955    0.05920000
opls_145-29    C    0.27974999    0.87080007    0.28291019    -0.12790000
opls_145-30    C    0.30747001    0.85626025    0.28772062    -0.11910000
opls_142-31    C    0.20783998    0.85798003    0.24636017    0.06910000
opls_145-32    C    0.19416995    0.91523010    0.26394967    0.19110000
opls_145-33    C    0.15317994    0.89412000    0.20157981    -0.16940000
opls_145-34    C    0.12989015    0.91373008    0.20041061    -0.12790000
opls_700-35    C    0.14689016    0.95473011    0.26138021    0.06820000
opls_145-36    C    0.18792999    0.97575022    0.32203942    -0.12770000
opls_145-37    C    0.21127018    0.95620024    0.32201019    -0.17050000
opls_700-38    C    0.12196006    0.97546020    0.26105033    0.06150000
opls_145-39    C    0.08004009    0.95331022    0.30529063    -0.17420000
opls_700-40    C    0.05568012    0.97203020    0.29868047    0.06880000
opls_145-41    C    0.07477996    0.01450006    0.25998970    -0.18000000
opls_700-42    C    0.11711002    0.03773986    0.22180975    0.06880000
opls_145-43    C    0.13997016    0.01741012    0.21637019    -0.17420000
opls_700-44    C    0.01031016    0.94688016    0.32648934    0.06760000
opls_700-45    C    0.13783000    0.08328990    0.19305022    0.06760000
opls_145-46    C    0.98877022    0.90520023    0.27162046    -0.12790000
opls_145-47    C    0.94621002    0.88185010    0.28995045    -0.16360000
opls_145-48    C    0.92384998    0.89962020    0.35817048    0.18820000
opls_145-49    C    0.94500011    0.94102028    0.41627972    -0.17060000
opls_145-50    C    0.98778015    0.96429028    0.40139051    -0.13110000
opls_145-51    C    0.11661009    0.10206013    0.11769946    -0.13200000
opls_145-52    C    0.13573994    0.14493990    0.10189021    -0.17020000
opls_145-53    C    0.17665001    0.16999994    0.15613969    0.18970000
opls_145-54    C    0.19813998    0.15150987    0.23016953    -0.17120000
opls_145-55    C    0.17888999    0.10877003    0.24917042    -0.12900000
opls_142-56    C    0.85382024    0.88731024    0.37938032    0.07020000
opls_700-57    C    0.80929001    0.85766997    0.38051055    0.05970000
opls_145-58    C    0.79408995    0.81498006    0.39123935    -0.12790000
opls_145-59    C    0.75187002    0.78735021    0.38545042    -0.11930000
opls_700-60    C    0.72409003    0.80180003    0.36800011    0.05970000
opls_145-61    C    0.73925008    0.84450998    0.35972941    -0.13020000
opls_145-62    C    0.78148998    0.87216017    0.36642030    -0.12040000
opls_142-63    C    0.67971023    0.77190026    0.35677022    0.06930000
opls_142-64    C    0.29587996    0.41558007    0.17042063    0.07060000
opls_700-65    C    0.28025999    0.37088005    0.15553978    0.05890000
opls_145-66    C    0.30706990    0.35505995    0.14192974    -0.12660000
opls_145-67    C    0.29158010    0.31255003    0.13351985    -0.11920000
opls_700-68    C    0.24912015    0.28510017    0.13849034    0.05880000
opls_145-69    C    0.22228005    0.30091996    0.14957964    -0.12790000
opls_145-70    C    0.23778008    0.34344992    0.15798953    -0.12400000
opls_142-71    C    0.23372999    0.24034005    0.13797951    0.06950000
opls_142-72    C    0.58568021    0.53479019    0.75894995    0.06930000
opls_700-73    C    0.67638004    0.35375008    0.72798981    0.06760000
opls_145-74    C    0.71934994    0.37774991    0.74201047    -0.17670000
opls_700-75    C    0.73931004    0.42096007    0.75521964    0.06760000
opls_145-76    C    0.71528011    0.44011000    0.75298007    -0.17170000
opls_700-77    C    0.67217008    0.41710999    0.74007015    0.06760000
opls_145-78    C    0.65330015    0.37390014    0.72823061    -0.17470000
opls_700-79    C    0.64699001    0.43811007    0.73904014    0.06140000
opls_700-80    C    0.65555998    0.30773003    0.71281944    0.06740000
opls_700-81    C    0.78512996    0.44606019    0.77152998    0.06740000
opls_145-82    C    0.66236000    0.47788006    0.81565058    -0.13220000
opls_145-83    C    0.63917990    0.49761003    0.81231001    -0.16850000
opls_145-84    C    0.59944002    0.47774014    0.73612967    0.18770000
opls_145-85    C    0.58353007    0.43800004    0.66437977    -0.16920000
opls_145-86    C    0.60707997    0.41869015    0.66231001    -0.13160000
opls_145-87    C    0.80781994    0.42939992    0.85265993    -0.13220000
opls_145-88    C    0.85056994    0.45268009    0.86632983    -0.17030000
opls_145-89    C    0.87179000    0.49359013    0.80178999    0.18880000
opls_145-90    C    0.84946020    0.51058017    0.72483993    -0.16880000
opls_145-91    C    0.80685011    0.48707008    0.70672986    -0.13160000
opls_145-92    C    0.67586015    0.28833014    0.63356996    -0.13200000
opls_145-93    C    0.65641005    0.24542017    0.62065030    -0.17090000
opls_145-94    C    0.61588013    0.22077003    0.68035048    0.18890000
opls_145-95    C    0.59536994    0.23969005    0.76046016    -0.16830000
opls_145-96    C    0.61511022    0.28252019    0.77814988    -0.13200000
opls_700-97    C    0.55581993    0.54939011    0.75325984    0.05880000
opls_145-98    C    0.51382005    0.52204997    0.72230945    -0.12660000
opls_145-99    C    0.48611001    0.53657993    0.71767023    -0.11930000
opls_700-100    C    0.49979997    0.57858009    0.74366962    0.05920000
opls_145-101    C    0.54179998    0.60593009    0.77461027    -0.12780000
opls_145-102    C    0.56952011    0.59138996    0.77942069    -0.11920000
opls_142-103    C    0.46988997    0.59311004    0.73806024    0.06910000
opls_145-104    C    0.45621994    0.65036012    0.75564974    0.19110000
opls_145-105    C    0.41522993    0.62925001    0.69328963    -0.16940000
opls_145-106    C    0.39194014    0.64886009    0.69212043    -0.12790000
opls_700-107    C    0.40894015    0.68986013    0.75308029    0.06820000
opls_145-108    C    0.44998024    0.71088024    0.81373949    -0.12770000
opls_145-109    C    0.47332002    0.69132995    0.81371026    -0.17050000
opls_700-110    C    0.38401004    0.71059022    0.75275040    0.06150000
opls_145-111    C    0.34209008    0.68844023    0.79698931    -0.17410000
opls_700-112    C    0.31773011    0.70716022    0.79038055    0.06880000
opls_145-113    C    0.33682995    0.74963008    0.75168977    -0.18000000
opls_700-114    C    0.37916016    0.77287018    0.71350983    0.06880000
opls_145-115    C    0.40202014    0.75254014    0.70808001    -0.17410000
opls_700-116    C    0.27236014    0.68201018    0.81818941    0.06760000
opls_700-117    C    0.39988014    0.81842023    0.68476004    0.06760000
opls_145-118    C    0.25082020    0.64033025    0.76332053    -0.12790000
opls_145-119    C    0.20826000    0.61698012    0.78165052    -0.16360000
opls_145-120    C    0.18590023    0.63475022    0.84987055    0.18820000
opls_145-121    C    0.20704995    0.67614999    0.90798953    -0.17050000
opls_145-122    C    0.24982998    0.69941999    0.89309059    -0.13110000
opls_145-123    C    0.37866008    0.83719014    0.60939953    -0.13200000
opls_145-124    C    0.39779008    0.88007022    0.59359028    -0.17020000
opls_145-125    C    0.43870015    0.90513027    0.64783976    0.18970000
opls_145-126    C    0.46019012    0.88664020    0.72186961    -0.17120000
opls_145-127    C    0.44093998    0.84390005    0.74087050    -0.12900000
opls_142-128    C    0.11587008    0.62243994    0.87108040    0.07020000
opls_700-129    C    0.07134000    0.59279999    0.87221062    0.05970000
opls_145-130    C    0.05613994    0.55011007    0.88293942    -0.12790000
opls_145-131    C    0.01392001    0.52248023    0.87716024    -0.11930000
opls_700-132    C    0.98614002    0.53693005    0.85970018    0.05970000
opls_145-133    C    0.00130007    0.57964000    0.85142949    -0.13020000
opls_145-134    C    0.04353996    0.60729019    0.85813012    -0.12040000
opls_142-135    C    0.94176007    0.50702997    0.84847030    0.06930000
opls_142-136    C    0.55792995    0.15071009    0.66211931    0.07060000
opls_700-137    C    0.54230997    0.10601007    0.64723985    0.05890000
opls_145-138    C    0.56911989    0.09018997    0.63362981    -0.12660000
opls_145-139    C    0.55363009    0.04768004    0.62521992    -0.11920000
opls_700-140    C    0.51116999    0.02022988    0.63019041    0.05880000
opls_145-141    C    0.48433003    0.03604997    0.64127972    -0.12780000
opls_145-142    C    0.49983007    0.07857993    0.64969935    -0.12400000
opls_142-143    C    0.49577998    0.97547006    0.62967958    0.06950000
opls_750-144    N    0.31179999    0.76099016    0.24105005    -0.34970000
opls_750-145    N    0.21974987    0.89681000    0.26749067    -0.34250000
opls_750-146    N    0.87996997    0.87436999    0.36730973    -0.35450000
opls_750-147    N    0.65353000    0.78420006    0.32499026    -0.34250000
opls_750-148    N    0.33509002    0.44171020    0.16997940    -0.34250000
opls_750-149    N    0.19460017    0.21397014    0.14377958    -0.34250000
opls_750-150    N    0.57384998    0.49612018    0.73275013    -0.34980000
opls_750-151    N    0.48180012    0.63194002    0.75918935    -0.34250000
opls_750-152    N    0.14201996    0.60950001    0.85900980    -0.35460000
opls_750-153    N    0.91557999    0.51933008    0.81669033    -0.34250000
opls_750-154    N    0.59713986    0.17683991    0.66167947    -0.34240000
opls_750-155    N    0.45665015    0.94910015    0.63547965    -0.34250000
opls_146-156    H    0.47533987    0.62754996    0.25097990    0.10350000
opls_146-157    H    0.46833997    0.73804008    0.27006013    0.08590000
opls_146-158    H    0.35834997    0.62053001    0.22707951    0.09110000
opls_146-159    H    0.42969017    0.75854025    0.39329937    0.11720000
opls_146-160    H    0.39001004    0.79251016    0.38461945    0.11590000
opls_146-161    H    0.29095999    0.68720002    0.11290992    0.11640000
opls_146-162    H    0.33190003    0.65388998    0.10312065    0.11720000
opls_146-163    H    0.53065012    0.66365017    0.42028005    0.11960000
opls_146-164    H    0.60436009    0.70372005    0.44201047    0.11860000
opls_146-165    H    0.60330005    0.80689002    0.18249958    0.11640000
opls_146-166    H    0.52932997    0.76593005    0.14545961    0.11760000
opls_146-167    H    0.44434993    0.57091999    0.08439953    0.11760000
opls_146-168    H    0.41057989    0.49617997    0.06702995    0.11690000
opls_146-169    H    0.30264996    0.48649004    0.32441958    0.11760000
opls_146-170    H    0.33673002    0.56036001    0.35690941    0.11770000
opls_144-171    H    0.35563022    0.82205025    0.28993931    0.11870000
opls_146-172    H    0.24029993    0.75434005    0.20974055    0.11690000
opls_146-173    H    0.19185008    0.77982018    0.20160069    0.11450000
opls_146-174    H    0.29121017    0.90337012    0.30384027    0.11620000
opls_146-175    H    0.33967013    0.87787026    0.31216942    0.11520000
opls_144-176    H    0.17580021    0.83541027    0.22712961    0.11990000
opls_146-177    H    0.13907008    0.86295998    0.14946968    0.11310000
opls_146-178    H    0.09878994    0.89701002    0.14763933    0.11660000
opls_146-179    H    0.20183996    0.00708006    0.37304020    0.11660000
opls_146-180    H    0.24275002    0.97288023    0.37017983    0.11480000
opls_146-181    H    0.06649020    0.92143024    0.34757948    0.12120000
opls_146-182    H    0.05664006    0.02948986    0.25961945    0.12250000
opls_146-183    H    0.17185980    0.03412987    0.17456990    0.11950000
opls_146-184    H    0.00447990    0.89071003    0.20844051    0.11930000
opls_146-185    H    0.93034000    0.85000002    0.24493068    0.11480000
opls_146-186    H    0.92890992    0.95534005    0.47688046    0.11980000
opls_146-187    H    0.00308005    0.99570025    0.45166054    0.11900000
opls_146-188    H    0.08537017    0.08379012    0.06866962    0.12030000
opls_146-189    H    0.11874000    0.15871999    0.04508936    0.11690000
opls_146-190    H    0.22917004    0.16988005    0.28136936    0.11580000
opls_146-191    H    0.19591013    0.09597002    0.31501030    0.11880000
opls_144-192    H    0.86409006    0.91993021    0.37809003    0.08780000
opls_146-193    H    0.81478999    0.80287012    0.40312065    0.11520000
opls_146-194    H    0.74090003    0.75459000    0.39278993    0.11220000
opls_146-195    H    0.71852996    0.85656999    0.34696982    0.11690000
opls_146-196    H    0.79249013    0.90492007    0.35808001    0.11450000
opls_144-197    H    0.66968995    0.73945997    0.36904961    0.11970000
opls_144-198    H    0.27391006    0.42614005    0.17934970    0.11030000
opls_146-199    H    0.33999988    0.37545996    0.13940065    0.11690000
opls_146-200    H    0.31284990    0.30107005    0.12504037    0.11640000
opls_146-201    H    0.18937014    0.28048019    0.15388063    0.11660000
opls_146-202    H    0.21652997    0.35494006    0.16833974    0.11310000
opls_144-203    H    0.25585997    0.22991999    0.13326931    0.10440000
opls_146-204    H    0.73738986    0.36267998    0.74267997    0.10360000
opls_146-205    H    0.73038996    0.47317009    0.76176995    0.08590000
opls_146-206    H    0.62039996    0.35566002    0.71877958    0.09110000
opls_146-207    H    0.69174000    0.49366996    0.88499944    0.11720000
opls_146-208    H    0.65206003    0.52764017    0.87631953    0.11590000
opls_146-209    H    0.55300997    0.42233004    0.60461973    0.11640000
opls_146-210    H    0.59395002    0.38902000    0.59481933    0.11720000
opls_146-211    H    0.79270011    0.39878019    0.91198012    0.11960000
opls_146-212    H    0.86641008    0.43885007    0.93371054    0.11860000
opls_146-213    H    0.86535003    0.54202004    0.67420940    0.11640000
opls_146-214    H    0.79137995    0.50106007    0.63715968    0.11760000
opls_146-215    H    0.70639991    0.30605001    0.57609960    0.11770000
opls_146-216    H    0.67262988    0.23130999    0.55873003    0.11690000
opls_146-217    H    0.56469995    0.22162006    0.81611965    0.11760000
opls_146-218    H    0.59878001    0.29549002    0.84860949    0.11760000
opls_144-219    H    0.61768006    0.55717996    0.78163939    0.11870000
opls_146-220    H    0.50234991    0.48947007    0.70144062    0.11660000
opls_146-221    H    0.45390007    0.51495019    0.69329937    0.11460000
opls_146-222    H    0.55326015    0.63850013    0.79554034    0.11620000
opls_146-223    H    0.60171996    0.61299997    0.80388063    0.11520000
opls_144-224    H    0.43785004    0.57053998    0.71883943    0.11990000
opls_146-225    H    0.40112006    0.59809000    0.64116976    0.11310000
opls_146-226    H    0.36083993    0.63214004    0.63933940    0.11660000
opls_146-227    H    0.46388995    0.74221007    0.86474027    0.11660000
opls_146-228    H    0.50480001    0.70801025    0.86187991    0.11480000
opls_146-229    H    0.32854003    0.65655995    0.83927955    0.12120000
opls_146-230    H    0.31869020    0.76462018    0.75133066    0.12260000
opls_146-231    H    0.43391021    0.76926019    0.66626997    0.11950000
opls_146-232    H    0.26653015    0.62584005    0.70015033    0.11930000
opls_146-233    H    0.19238999    0.58513003    0.73662936    0.11480000
opls_146-234    H    0.19095990    0.69047006    0.96858054    0.11980000
opls_146-235    H    0.26512988    0.73082996    0.94336061    0.11900000
opls_146-236    H    0.34742016    0.81892013    0.56036969    0.12010000
opls_146-237    H    0.38078999    0.89385001    0.53680057    0.11690000
opls_146-238    H    0.49122002    0.90501007    0.77306943    0.11580000
opls_146-239    H    0.45796012    0.83110004    0.80671037    0.11880000
opls_144-240    H    0.12614004    0.65506023    0.86979010    0.08770000
opls_146-241    H    0.07683998    0.53800013    0.89481933    0.11530000
opls_146-242    H    0.00295001    0.48972002    0.88449975    0.11210000
opls_146-243    H    0.98057995    0.59170001    0.83866990    0.11690000
opls_146-244    H    0.05454012    0.64005009    0.84978008    0.11450000
opls_144-245    H    0.93173994    0.47458999    0.86075942    0.11980000
opls_144-246    H    0.53596004    0.16127007    0.67104977    0.11030000
opls_146-247    H    0.60204987    0.11058997    0.63109933    0.11690000
opls_146-248    H    0.57490015    0.03620007    0.61674044    0.11640000
opls_146-249    H    0.45141998    0.01560990    0.64557931    0.11660000
opls_146-250    H    0.47857996    0.09007008    0.66003981    0.11310000
opls_144-251    H    0.51790996    0.96505000    0.62496938    0.10440000
