#======================================================================
# Crystal Data Generated By AuToFF
#----------------------------------------------------------------------

data_AuToFF_phase_1

_cell_length_a                         5.0601
_cell_length_b                         22.4489
_cell_length_c                         15.4087
_cell_angle_alpha                      90.00
_cell_angle_beta                       90.00
_cell_angle_gamma                      90.00
_symmetry_space_group_name_H-M_alt     'P 1'
_symmetry_space_group_IT_number        1

loop_
_space_group_symop_operation_xyz
   'x, y, z'

loop_
   _atom_site_label
   _atom_site_type_symbol
   _atom_site_fract_x
   _atom_site_fract_y
   _atom_site_fract_z
   _atom_site_charge
opls_145-0    C    0.02825043    0.00657983    0.41783992    -0.15020000
opls_145-1    C    0.01347009    0.06077002    0.45828980    -0.00620000
opls_145-2    C    0.99806921    0.11621015    0.58884007    0.02920000
opls_145-3    C    0.19942096    0.15411980    0.58047012    -0.23580000
opls_145-4    C    0.22326041    0.20445991    0.62769994    -0.23580000
opls_145-5    C    0.04427976    0.21815991    0.68412974    0.00920000
opls_145-6    C    0.83980949    0.18073001    0.69226995    -0.23300000
opls_145-7    C    0.81799964    0.12971994    0.64536009    -0.23580000
opls_142-8    C    0.07820004    0.27084000    0.73455970    0.08340000
opls_145-9    C    0.91945021    0.34597018    0.82150019    0.18020000
opls_141-10    C    0.01749965    0.50534993    0.04003972    -0.01940000
opls_145-11    C    0.03911978    0.44920018    0.08575026    0.03060000
opls_145-12    C    0.03660007    0.56086000    0.08752004    0.03030000
opls_145-13    C    0.19763048    0.60677004    0.06662016    -0.23300000
opls_145-14    C    0.21466967    0.65802021    0.11304977    -0.23840000
opls_145-15    C    0.06988992    0.66449982    0.18071025    0.18020000
opls_145-16    C    0.91345033    0.61775009    0.20305996    -0.23550000
opls_145-17    C    0.89694077    0.56662019    0.15676988    -0.23580000
opls_145-18    C    0.24433904    0.44025988    0.13435981    -0.23330000
opls_145-19    C    0.26566076    0.38868987    0.17971016    -0.23590000
opls_145-20    C    0.87555977    0.35446013    0.12951969    -0.23590000
opls_145-21    C    0.85422027    0.40592991    0.08380006    -0.23130000
opls_142-22    C    0.92227031    0.73755997    0.27450012    0.08340000
opls_145-23    C    0.98663070    0.95241994    0.54174006    -0.00580000
opls_145-24    C    0.00019960    0.89685018    0.41132023    0.02920000
opls_145-25    C    0.82170906    0.88262988    0.64561968    -0.23330000
opls_145-26    C    0.84310982    0.83042020    0.69035026    -0.23220000
opls_145-27    C    0.04455050    0.79240987    0.67920980    0.00750000
opls_145-28    C    0.22181973    0.80710013    0.62267031    -0.23580000
opls_145-29    C    0.19910081    0.85872003    0.57815001    -0.23580000
opls_145-30    C    0.97174957    0.00657983    0.58216008    -0.15020000
opls_145-31    C    0.98652991    0.06077002    0.54171020    -0.00620000
opls_145-32    C    0.00193079    0.11621015    0.41115993    0.02920000
opls_145-33    C    0.80057904    0.15411980    0.41952988    -0.23580000
opls_145-34    C    0.77673959    0.20445991    0.37230006    -0.23580000
opls_145-35    C    0.95572024    0.21815991    0.31587026    0.00920000
opls_145-36    C    0.16019051    0.18073001    0.30773005    -0.23300000
opls_145-37    C    0.18200036    0.12971994    0.35463991    -0.23580000
opls_142-38    C    0.92179996    0.27084000    0.26544030    0.08340000
opls_145-39    C    0.08054979    0.34597018    0.17849981    0.18020000
opls_141-40    C    0.98250035    0.50534993    0.95996028    -0.01940000
opls_145-41    C    0.96088022    0.44920018    0.91424974    0.03060000
opls_145-42    C    0.96339993    0.56086000    0.91247996    0.03030000
opls_145-43    C    0.80236952    0.60677004    0.93337984    -0.23300000
opls_145-44    C    0.78533033    0.65802021    0.88695023    -0.23840000
opls_145-45    C    0.93011008    0.66449982    0.81928975    0.18020000
opls_145-46    C    0.08654967    0.61775009    0.79694004    -0.23550000
opls_145-47    C    0.10305923    0.56662019    0.84323012    -0.23580000
opls_145-48    C    0.75566096    0.44025988    0.86564019    -0.23320000
opls_145-49    C    0.73433924    0.38868987    0.82028984    -0.23580000
opls_145-50    C    0.12444023    0.35446013    0.87048031    -0.23590000
opls_145-51    C    0.14577973    0.40592991    0.91619994    -0.23130000
opls_142-52    C    0.07772969    0.73755997    0.72549988    0.08340000
opls_145-53    C    0.01336930    0.95241994    0.45825994    -0.00580000
opls_145-54    C    0.99980040    0.89685018    0.58867977    0.02920000
opls_145-55    C    0.17829094    0.88262988    0.35438032    -0.23330000
opls_145-56    C    0.15689018    0.83042020    0.30964974    -0.23220000
opls_145-57    C    0.95544950    0.79240987    0.32079020    0.00750000
opls_145-58    C    0.77818027    0.80710013    0.37732969    -0.23580000
opls_145-59    C    0.80089919    0.85872003    0.42184999    -0.23580000
opls_750-60    N    0.89552973    0.29449015    0.77235004    -0.20840000
opls_750-61    N    0.08896069    0.71839021    0.22584968    -0.20760000
opls_750-62    N    0.10447027    0.29449015    0.22764996    -0.20840000
opls_750-63    N    0.91103931    0.71839021    0.77415032    -0.20780000
opls_146-64    H    0.03927986    0.00655979    0.35380986    0.20540000
opls_146-65    H    0.34053082    0.14379012    0.53831018    0.20540000
opls_146-66    H    0.38198059    0.23277978    0.62021001    0.20530000
opls_146-67    H    0.69996048    0.19059018    0.73577005    0.20550000
opls_146-68    H    0.66150076    0.10075995    0.65309987    0.20530000
opls_144-69    H    0.25754036    0.29155994    0.73623992    0.10010000
opls_146-70    H    0.30538922    0.60323000    0.01350990    0.20550000
opls_146-71    H    0.33786091    0.69333999    0.09593996    0.20520000
opls_146-72    H    0.80667971    0.61980988    0.25674002    0.20540000
opls_146-73    H    0.77456967    0.53136991    0.17502969    0.20520000
opls_146-74    H    0.38756942    0.47342988    0.13716991    0.20510000
opls_146-75    H    0.42320903    0.38253010    0.21764977    0.20550000
opls_146-76    H    0.73332938    0.32114001    0.12662976    0.20520000
opls_146-77    H    0.69371949    0.41214002    0.04712013    0.20550000
opls_144-78    H    0.75093970    0.71398020    0.28150980    0.10010000
opls_146-79    H    0.66629908    0.91167006    0.65493001    0.20530000
opls_146-80    H    0.70428055    0.81978003    0.73386983    0.20550000
opls_146-81    H    0.37880081    0.77859984    0.61294983    0.20520000
opls_146-82    H    0.33832928    0.86959005    0.53574020    0.20540000
opls_146-83    H    0.96072014    0.00655979    0.64619014    0.20540000
opls_146-84    H    0.65946918    0.14379012    0.46168982    0.20540000
opls_146-85    H    0.61801941    0.23277978    0.37978999    0.20520000
opls_146-86    H    0.30003952    0.19059018    0.26422995    0.20550000
opls_146-87    H    0.33849924    0.10075995    0.34690013    0.20530000
opls_144-88    H    0.74245964    0.29155994    0.26376008    0.10010000
opls_146-89    H    0.69461078    0.60323000    0.98649010    0.20540000
opls_146-90    H    0.66213909    0.69333999    0.90406004    0.20520000
opls_146-91    H    0.19332029    0.61980988    0.74325998    0.20540000
opls_146-92    H    0.22543033    0.53136991    0.82497031    0.20530000
opls_146-93    H    0.61243058    0.47342988    0.86283009    0.20510000
opls_146-94    H    0.57679097    0.38253010    0.78235023    0.20550000
opls_146-95    H    0.26667062    0.32114001    0.87337024    0.20510000
opls_146-96    H    0.30628051    0.41214002    0.95287987    0.20550000
opls_144-97    H    0.24906030    0.71398020    0.71849020    0.10010000
opls_146-98    H    0.33370092    0.91167006    0.34506999    0.20530000
opls_146-99    H    0.29571945    0.81978003    0.26613017    0.20550000
opls_146-100    H    0.62119919    0.77859984    0.38705017    0.20520000
opls_146-101    H    0.66167072    0.86959005    0.46425980    0.20540000
