#======================================================================
# Crystal Data Generated By AuToFF
#----------------------------------------------------------------------

data_AuToFF_phase_1

_cell_length_a                         37.7966
_cell_length_b                         37.7966
_cell_length_c                         3.6216
_cell_angle_alpha                      90.00
_cell_angle_beta                       90.00
_cell_angle_gamma                      120.00
_symmetry_space_group_name_H-M_alt     'P 1'
_symmetry_space_group_IT_number        1

loop_
_space_group_symop_operation_xyz
   'x, y, z'

loop_
   _atom_site_label
   _atom_site_type_symbol
   _atom_site_fract_x
   _atom_site_fract_y
   _atom_site_fract_z
   _atom_site_charge
opls_700-0    C    0.99500992    0.47905008    0.21420919    0.07540000
opls_700-1    C    0.94841992    0.40854989    0.01084051    -0.03690000
opls_145-2    C    0.97933983    0.39952989    0.06647062    -0.15600000
opls_700-3    C    0.01887998    0.42940999    0.19174950    0.08350000
opls_145-4    C    0.02498984    0.46820989    0.28188922    -0.14940000
opls_145-5    C    0.95619990    0.44764001    0.08798873    -0.14780000
opls_234-6    C    0.37803003    0.47130006    0.86882041    0.49500000
opls_700-7    C    0.05256997    0.42212984    0.17162028    0.06250000
opls_145-8    C    0.04761989    0.38256985    0.23280042    -0.12560000
opls_145-9    C    0.07945011    0.37548002    0.17664016    -0.11840000
opls_700-10    C    0.11780988    0.40664996    0.05778109    -0.03490000
opls_145-11    C    0.12344981    0.44585984    0.99951127    -0.12920000
opls_145-12    C    0.09212994    0.45369999    0.05688922    -0.13230000
opls_234-13    C    0.15099993    0.39633004    0.00482107    0.49470000
opls_916-14    C    0.22445988    0.43164995    0.84773028    0.21000000
opls_145-15    C    0.22905007    0.39899007    0.73291087    -0.16790000
opls_145-16    C    0.26701987    0.40180987    0.73116026    -0.16990000
opls_916-17    C    0.30200000    0.43754006    0.84116137    0.20830000
opls_145-18    C    0.29761003    0.47074007    0.94181025    -0.16790000
opls_145-19    C    0.25963000    0.46790988    0.94325989    -0.16440000
opls_700-20    C    0.52094986    0.51595982    0.21420919    0.07540000
opls_700-21    C    0.59144994    0.53987008    0.01084051    -0.03690000
opls_145-22    C    0.60046987    0.57980981    0.06647062    -0.15600000
opls_700-23    C    0.57058989    0.58946983    0.19174950    0.08350000
opls_145-24    C    0.53179005    0.55678001    0.28188922    -0.14940000
opls_145-25    C    0.55235994    0.50855991    0.08798873    -0.14780000
opls_234-26    C    0.52870008    0.90673000    0.86882041    0.49500000
opls_700-27    C    0.57787009    0.63044003    0.17162028    0.06250000
opls_145-28    C    0.61742996    0.66504994    0.23280042    -0.12560000
opls_145-29    C    0.62452005    0.70396990    0.17664016    -0.11840000
opls_700-30    C    0.59335003    0.71115993    0.05778109    -0.03470000
opls_145-31    C    0.55414001    0.67758995    0.99951127    -0.12920000
opls_145-32    C    0.54629991    0.63842987    0.05688922    -0.13230000
opls_234-33    C    0.60366980    0.75466978    0.00482107    0.49470000
opls_916-34    C    0.56834999    0.79280979    0.84773028    0.21000000
opls_145-35    C    0.60100989    0.83005986    0.73291087    -0.16790000
opls_145-36    C    0.59818995    0.86520990    0.73116026    -0.16990000
opls_916-37    C    0.56245991    0.86445989    0.84116137    0.20830000
opls_145-38    C    0.52925986    0.82686979    0.94181025    -0.16790000
opls_145-39    C    0.53208985    0.79171975    0.94325989    -0.16440000
opls_700-40    C    0.48403995    0.00499010    0.21420919    0.07540000
opls_700-41    C    0.46013014    0.05158003    0.01084051    -0.03690000
opls_145-42    C    0.42018988    0.02066000    0.06647062    -0.15600000
opls_700-43    C    0.41052998    0.98111987    0.19174950    0.08350000
opls_145-44    C    0.44321996    0.97500979    0.28188922    -0.14940000
opls_145-45    C    0.49144016    0.04380008    0.08798873    -0.14780000
opls_234-46    C    0.09326988    0.62196994    0.86882041    0.49500000
opls_700-47    C    0.36956004    0.94742983    0.17162028    0.06250000
opls_145-48    C    0.33495000    0.95237990    0.23280042    -0.12560000
opls_145-49    C    0.29602995    0.92054977    0.17664016    -0.11840000
opls_700-50    C    0.28883994    0.88218980    0.05778109    -0.03470000
opls_145-51    C    0.32241003    0.87654990    0.99951127    -0.12920000
opls_145-52    C    0.36157000    0.90786984    0.05688922    -0.13230000
opls_234-53    C    0.24532985    0.84899987    0.00482107    0.49470000
opls_916-54    C    0.20718998    0.77553996    0.84773028    0.21000000
opls_145-55    C    0.16993989    0.77094977    0.73291087    -0.16790000
opls_145-56    C    0.13479002    0.73297993    0.73116026    -0.16990000
opls_916-57    C    0.13554008    0.69800005    0.84116137    0.20830000
opls_145-58    C    0.17312996    0.70238983    0.94181025    -0.16790000
opls_145-59    C    0.20827984    0.74036976    0.94325989    -0.16440000
opls_700-60    C    0.00499008    0.52094992    0.21420919    0.07540000
opls_700-61    C    0.05157993    0.59144980    0.01084051    -0.03690000
opls_145-62    C    0.02066002    0.60046980    0.06647062    -0.15600000
opls_700-63    C    0.98112002    0.57059001    0.19174950    0.08350000
opls_145-64    C    0.97501001    0.53178981    0.28188922    -0.14940000
opls_145-65    C    0.04380010    0.55235999    0.08798873    -0.14780000
opls_234-66    C    0.62196997    0.52869994    0.86882041    0.49500000
opls_700-67    C    0.94742987    0.57786986    0.17162028    0.06250000
opls_145-68    C    0.95237996    0.61742985    0.23280042    -0.12560000
opls_145-69    C    0.92054989    0.62451998    0.17664016    -0.11840000
opls_700-70    C    0.88219012    0.59335004    0.05778109    -0.03470000
opls_145-71    C    0.87655004    0.55413985    0.99951127    -0.12920000
opls_145-72    C    0.90787006    0.54630001    0.05688922    -0.13230000
opls_234-73    C    0.84900007    0.60366996    0.00482107    0.49470000
opls_916-74    C    0.77554012    0.56835005    0.84773028    0.21000000
opls_145-75    C    0.77094993    0.60100993    0.73291087    -0.16790000
opls_145-76    C    0.73297997    0.59818983    0.73116026    -0.16990000
opls_916-77    C    0.69800000    0.56245994    0.84116137    0.20830000
opls_145-78    C    0.70238997    0.52925993    0.94181025    -0.16790000
opls_145-79    C    0.74036984    0.53208981    0.94325989    -0.16440000
opls_700-80    C    0.47904999    0.48403987    0.21420919    0.07540000
opls_700-81    C    0.40855006    0.46012992    0.01084051    -0.03690000
opls_145-82    C    0.39952997    0.42018989    0.06647062    -0.15600000
opls_700-83    C    0.42940996    0.41052986    0.19174950    0.08350000
opls_145-84    C    0.46820995    0.44321999    0.28188922    -0.14940000
opls_145-85    C    0.44763991    0.49143978    0.08798873    -0.14780000
opls_234-86    C    0.47129992    0.09327000    0.86882041    0.49510000
opls_700-87    C    0.42212991    0.36955997    0.17162028    0.06250000
opls_145-88    C    0.38257004    0.33495006    0.23280042    -0.12560000
opls_145-89    C    0.37547995    0.29603010    0.17664016    -0.11840000
opls_700-90    C    0.40664997    0.28884007    0.05778109    -0.03470000
opls_145-91    C    0.44585999    0.32241005    0.99951127    -0.12920000
opls_145-92    C    0.45369994    0.36156983    0.05688922    -0.13230000
opls_234-93    C    0.39633005    0.24532992    0.00482107    0.49470000
opls_916-94    C    0.43164986    0.20718991    0.84773028    0.21000000
opls_145-95    C    0.39898996    0.16993983    0.73291087    -0.16790000
opls_145-96    C    0.40181005    0.13479010    0.73116026    -0.16980000
opls_916-97    C    0.43754009    0.13554011    0.84116137    0.20830000
opls_145-98    C    0.47073998    0.17312990    0.94181025    -0.16780000
opls_145-99    C    0.46790999    0.20827995    0.94325989    -0.16440000
opls_700-100    C    0.51596005    0.99500990    0.21420919    0.07540000
opls_700-101    C    0.53986986    0.94841997    0.01084051    -0.03690000
opls_145-102    C    0.57981012    0.97934000    0.06647062    -0.15600000
opls_700-103    C    0.58947002    0.01888013    0.19174950    0.08350000
opls_145-104    C    0.55677989    0.02498990    0.28188922    -0.14940000
opls_145-105    C    0.50855984    0.95619992    0.08798873    -0.14780000
opls_234-106    C    0.90673012    0.37803006    0.86882041    0.49500000
opls_700-107    C    0.63043980    0.05256987    0.17162028    0.06250000
opls_145-108    C    0.66505000    0.04762010    0.23280042    -0.12560000
opls_145-109    C    0.70396989    0.07944992    0.17664016    -0.11840000
opls_700-110    C    0.71115991    0.11780989    0.05778109    -0.03470000
opls_145-111    C    0.67758997    0.12345010    0.99951127    -0.12920000
opls_145-112    C    0.63842985    0.09212986    0.05688922    -0.13230000
opls_234-113    C    0.75467015    0.15100013    0.00482107    0.49470000
opls_916-114    C    0.79281002    0.22446004    0.84773028    0.21000000
opls_145-115    C    0.83005996    0.22904993    0.73291087    -0.16790000
opls_145-116    C    0.86520998    0.26702007    0.73116026    -0.16990000
opls_916-117    C    0.86445992    0.30199995    0.84116137    0.20830000
opls_145-118    C    0.82686989    0.29760986    0.94181025    -0.16790000
opls_145-119    C    0.79172001    0.25962994    0.94325989    -0.16440000
opls_238-120    N    0.18645994    0.42904980    0.87265021    -0.34090000
opls_238-121    N    0.33907992    0.43817001    0.86676883    -0.34130000
opls_238-122    N    0.57094999    0.75740984    0.87265021    -0.34090000
opls_238-123    N    0.56183002    0.90090985    0.86676883    -0.34150000
opls_238-124    N    0.24258976    0.81353974    0.87265021    -0.34090000
opls_238-125    N    0.09908990    0.66091984    0.86676883    -0.34150000
opls_238-126    N    0.81353990    0.57094989    0.87265021    -0.34090000
opls_238-127    N    0.66092008    0.56182999    0.86676883    -0.34140000
opls_238-128    N    0.42904986    0.24258985    0.87265021    -0.34090000
opls_238-129    N    0.43816982    0.09908984    0.86676883    -0.34150000
opls_238-130    N    0.75741009    0.18645995    0.87265021    -0.34090000
opls_238-131    N    0.90090995    0.33907986    0.86676883    -0.34150000
opls_236-132    O    0.38530996    0.50506006    0.76991937    -0.37770000
opls_236-133    O    0.14858997    0.36377006    0.07725039    -0.37600000
opls_236-134    O    0.49493991    0.88024985    0.76991937    -0.37780000
opls_236-135    O    0.63623005    0.78481995    0.07725039    -0.37600000
opls_236-136    O    0.11974998    0.61468978    0.76991937    -0.37780000
opls_236-137    O    0.21517998    0.85140999    0.07725039    -0.37600000
opls_236-138    O    0.61469004    0.49493994    0.76991937    -0.37780000
opls_236-139    O    0.85141003    0.63622994    0.07725039    -0.37590000
opls_236-140    O    0.50505994    0.11974984    0.76991937    -0.37780000
opls_236-141    O    0.36376995    0.21518005    0.07725039    -0.37600000
opls_236-142    O    0.88024987    0.38530991    0.76991937    -0.37780000
opls_236-143    O    0.78482002    0.14859001    0.07725039    -0.37600000
opls_146-144    H    0.97619988    0.37022994    0.98217086    0.08580000
opls_146-145    H    0.05538979    0.49203979    0.37414955    0.10540000
opls_146-146    H    0.93270995    0.45578994    0.02519881    0.07360000
opls_146-147    H    0.01803013    0.35725000    0.32454992    0.06100000
opls_146-148    H    0.07424983    0.34450988    0.22797106    0.10420000
opls_146-149    H    0.15237994    0.47190984    0.90590899    0.08180000
opls_146-150    H    0.09714995    0.48440006    0.99618953    0.08540000
opls_241-151    H    0.18626002    0.45470998    0.81155014    0.29630000
opls_146-152    H    0.20239981    0.37002984    0.64565938    0.07950000
opls_146-153    H    0.26843005    0.37467991    0.64559863    0.09570000
opls_146-154    H    0.32394005    0.49945987    0.03713000    0.06530000
opls_146-155    H    0.25795997    0.49466988    0.03635962    0.08040000
opls_241-156    H    0.33557994    0.41112009    0.94087972    0.29630000
opls_146-157    H    0.62976984    0.60596979    0.98217086    0.08580000
opls_146-158    H    0.50795984    0.56334987    0.37414955    0.10540000
opls_146-159    H    0.54420989    0.47691980    0.02519881    0.06650000
opls_146-160    H    0.64275006    0.66077991    0.32454992    0.06100000
opls_146-161    H    0.65548993    0.72973975    0.22797106    0.10420000
opls_146-162    H    0.52808996    0.68046994    0.90590899    0.08180000
opls_146-163    H    0.51559982    0.61274983    0.99618953    0.08540000
opls_241-164    H    0.54529002    0.73154986    0.81155014    0.29630000
opls_146-165    H    0.62996999    0.83236977    0.64565938    0.07950000
opls_146-166    H    0.62531977    0.89374976    0.64559863    0.09570000
opls_146-167    H    0.50053992    0.82447983    0.03713000    0.06530000
opls_146-168    H    0.50532987    0.76328987    0.03635962    0.08030000
opls_241-169    H    0.58887997    0.92445992    0.94087972    0.29630000
opls_146-170    H    0.39402986    0.02379997    0.98217086    0.08580000
opls_146-171    H    0.43664995    0.94461003    0.37414955    0.10540000
opls_146-172    H    0.52308001    0.06728996    0.02519881    0.07360000
opls_146-173    H    0.33921992    0.98196978    0.32454992    0.06100000
opls_146-174    H    0.27025993    0.92574975    0.22797106    0.10420000
opls_146-175    H    0.31952994    0.84761991    0.90590899    0.08180000
opls_146-176    H    0.38724982    0.90284980    0.99618953    0.08540000
opls_241-177    H    0.26844980    0.81373985    0.81155014    0.29630000
opls_146-178    H    0.16762989    0.79759978    0.64565938    0.07950000
opls_146-179    H    0.10625003    0.73157003    0.64559863    0.09570000
opls_146-180    H    0.17551988    0.67605999    0.03713000    0.06530000
opls_146-181    H    0.23671001    0.74203995    0.03635962    0.08030000
opls_241-182    H    0.07554008    0.66441999    0.94087972    0.29630000
opls_146-183    H    0.02380012    0.62977006    0.98217086    0.08580000
opls_146-184    H    0.94461006    0.50795990    0.37414955    0.10540000
opls_146-185    H    0.06729005    0.54421006    0.02519881    0.07360000
opls_146-186    H    0.98196987    0.64275000    0.32454992    0.06100000
opls_146-187    H    0.92575002    0.65548981    0.22797106    0.10420000
opls_146-188    H    0.84761990    0.52808985    0.90590899    0.08190000
opls_146-189    H    0.90285005    0.51559994    0.99618953    0.08540000
opls_241-190    H    0.81373998    0.54529002    0.81155014    0.29630000
opls_146-191    H    0.79760003    0.62996986    0.64565938    0.07950000
opls_146-192    H    0.73156979    0.62531979    0.64559863    0.09570000
opls_146-193    H    0.67605980    0.50053983    0.03713000    0.06530000
opls_146-194    H    0.74203988    0.50532982    0.03635962    0.08030000
opls_241-195    H    0.66442006    0.58887991    0.94087972    0.29630000
opls_146-196    H    0.37023000    0.39402991    0.98217086    0.08580000
opls_146-197    H    0.49204001    0.43664982    0.37414955    0.10540000
opls_146-198    H    0.45578996    0.52307989    0.02519881    0.06650000
opls_146-199    H    0.35724994    0.33922009    0.32454992    0.06100000
opls_146-200    H    0.34450991    0.27025994    0.22797106    0.10420000
opls_146-201    H    0.47191004    0.31953006    0.90590899    0.08180000
opls_146-202    H    0.48440003    0.38724986    0.99618953    0.08540000
opls_241-203    H    0.45470983    0.26844983    0.81155014    0.29630000
opls_146-204    H    0.37002986    0.16762992    0.64565938    0.07950000
opls_146-205    H    0.37468008    0.10624994    0.64559863    0.09570000
opls_146-206    H    0.49945992    0.17551986    0.03713000    0.06530000
opls_146-207    H    0.49466998    0.23670982    0.03635962    0.08030000
opls_241-208    H    0.41112003    0.07554008    0.94087972    0.29630000
opls_146-209    H    0.60596999    0.97619973    0.98217086    0.08580000
opls_146-210    H    0.56335005    0.05538997    0.37414955    0.10550000
opls_146-211    H    0.47691984    0.93270974    0.02519881    0.06650000
opls_146-212    H    0.66077993    0.01802992    0.32454992    0.06100000
opls_146-213    H    0.72973992    0.07424994    0.22797106    0.10420000
opls_146-214    H    0.68047006    0.15238009    0.90590899    0.08180000
opls_146-215    H    0.61275003    0.09714989    0.99618953    0.08540000
opls_241-216    H    0.73155005    0.18625985    0.81155014    0.29630000
opls_146-217    H    0.83236996    0.20239992    0.64565938    0.07950000
opls_146-218    H    0.89374997    0.26842997    0.64559863    0.09570000
opls_146-219    H    0.82448012    0.32394001    0.03713000    0.06530000
opls_146-220    H    0.76328999    0.25796005    0.03635962    0.08030000
opls_241-221    H    0.92445992    0.33558001    0.94087972    0.29630000
