#======================================================================
# Crystal Data Generated By AuToFF
#----------------------------------------------------------------------

data_AuToFF_phase_1

_cell_length_a                         3.6340
_cell_length_b                         29.8839
_cell_length_c                         29.9621
_cell_angle_alpha                      120.00
_cell_angle_beta                       90.00
_cell_angle_gamma                      90.00
_symmetry_space_group_name_H-M_alt     'P 1'
_symmetry_space_group_IT_number        1

loop_
_space_group_symop_operation_xyz
   'x, y, z'

loop_
   _atom_site_label
   _atom_site_type_symbol
   _atom_site_fract_x
   _atom_site_fract_y
   _atom_site_fract_z
   _atom_site_charge
opls_280-0    C    0.90312878    0.70501987    0.39029996    0.32190000
opls_145-1    C    0.99733076    0.72610006    0.35615005    -0.24340000
opls_280-2    C    0.00910017    0.68975985    0.30004000    0.35010000
opls_145-3    C    0.87094111    0.63611985    0.27853001    -0.14960000
opls_280-4    C    0.81892955    0.61609986    0.31453981    0.34220000
opls_145-5    C    0.91028894    0.64887005    0.36966017    -0.23110000
opls_142-6    C    0.99241882    0.63041008    0.40141992    0.04820000
opls_142-7    C    0.79621904    0.60516983    0.22811984    0.04930000
opls_142-8    C    0.07471932    0.77626001    0.37378998    0.04870000
opls_916-9    C    0.09309026    0.86716993    0.44907997    0.13740000
opls_166-10    C    0.95031921    0.89797990    0.49953985    0.23140000
opls_145-11    C    0.92159879    0.95123994    0.52037002    -0.22500000
opls_700-12    C    0.02353054    0.97504000    0.49193000    0.06980000
opls_145-13    C    0.16216015    0.94445988    0.44203008    -0.12120000
opls_145-14    C    0.20053110    0.89130006    0.42112014    -0.16880000
opls_700-15    C    0.97796918    0.03145016    0.51388010    0.07120000
opls_145-16    C    0.06859934    0.06570019    0.56536010    -0.11920000
opls_145-17    C    0.02293065    0.11880995    0.58609007    -0.16890000
opls_916-18    C    0.87963126    0.13887984    0.55599982    0.12850000
opls_166-19    C    0.79039901    0.10446989    0.50396987    0.22240000
opls_145-20    C    0.84208035    0.05133992    0.48338982    -0.23430000
opls_142-21    C    0.84728949    0.23066008    0.63103005    0.04850000
opls_145-22    C    0.93100991    0.28081999    0.64923998    -0.15150000
opls_280-23    C    0.90465052    0.31742988    0.70524982    0.34520000
opls_145-24    C    0.97484040    0.37308995    0.72560018    -0.22700000
opls_280-25    C    0.95307925    0.39234012    0.68897993    0.32050000
opls_145-26    C    0.04722895    0.35747009    0.63424996    -0.22950000
opls_280-27    C    0.05646946    0.30137009    0.61562999    0.35180000
opls_142-28    C    0.12962025    0.37459009    0.60140998    0.04810000
opls_142-29    C    0.04430105    0.40660005    0.77545000    0.04870000
opls_916-30    C    0.18395982    0.44926975    0.58442982    0.13740000
opls_166-31    C    0.05006879    0.50004999    0.60228982    0.23140000
opls_145-32    C    0.04947991    0.52055995    0.56939009    -0.21960000
opls_700-33    C    0.17077876    0.49147985    0.51834982    0.06980000
opls_145-34    C    0.30146946    0.44129014    0.50077000    -0.11610000
opls_145-35    C    0.31135938    0.42063009    0.53357993    -0.16820000
opls_916-36    C    0.07935883    0.42353997    0.86667998    0.12810000
opls_166-37    C    0.93840121    0.40425005    0.89809981    0.22660000
opls_145-38    C    0.90821959    0.43701989    0.95107010    -0.21100000
opls_700-39    C    0.00798019    0.48919003    0.97396017    0.06950000
opls_145-40    C    0.14509906    0.50811990    0.94272994    -0.11880000
opls_145-41    C    0.18380022    0.47556009    0.88981014    -0.16690000
opls_916-42    C    0.85632086    0.58930007    0.13693997    0.12810000
opls_916-43    C    0.09477986    0.55532011    0.41743005    0.13650000
opls_166-44    C    0.77083104    0.60674001    0.10205010    0.23150000
opls_145-45    C    0.82553110    0.57412012    0.04919003    -0.23430000
opls_700-46    C    0.96145019    0.52390980    0.03010990    0.06960000
opls_145-47    C    0.04976059    0.50696995    0.06489995    -0.11670000
opls_145-48    C    0.00033021    0.53938001    0.11770992    -0.16820000
opls_166-49    C    0.00067969    0.50321005    0.39954000    0.23160000
opls_145-50    C    0.03050083    0.48261998    0.43247017    -0.23200000
opls_700-51    C    0.15279031    0.51311013    0.48329000    0.06980000
opls_145-52    C    0.25296092    0.56449005    0.50058001    -0.11610000
opls_145-53    C    0.22687122    0.58528014    0.46795006    -0.16970000
opls_281-54    O    0.67424051    0.57414994    0.29932010    -0.36570000
opls_281-55    O    0.80613099    0.73327988    0.43467998    -0.35650000
opls_281-56    O    0.15329114    0.70355999    0.27206013    -0.35020000
opls_281-57    O    0.84536874    0.43621995    0.70385009    -0.39160000
opls_281-58    O    0.19001101    0.27255983    0.57354996    -0.35680000
opls_281-59    O    0.80137039    0.30202975    0.73406983    -0.37660000
opls_167-60    O    0.81596037    0.87733001    0.52926013    -0.46190000
opls_167-61    O    0.64318932    0.12331996    0.47333006    -0.45510000
opls_167-62    O    0.89744909    0.53037992    0.65118002    -0.45550000
opls_167-63    O    0.80733902    0.35391007    0.87832984    -0.40790000
opls_167-64    O    0.62272977    0.65600995    0.12011011    -0.45980000
opls_167-65    O    0.86678866    0.47270986    0.34951985    -0.40790000
opls_238-66    N    0.13919923    0.81241988    0.42718998    -0.34260000
opls_238-67    N    0.83072922    0.19356998    0.57707009    -0.34190000
opls_238-68    N    0.20296918    0.42788979    0.61807989    -0.34200000
opls_238-69    N    0.12651899    0.39043985    0.81224984    -0.34260000
opls_238-70    N    0.80203082    0.62274015    0.19130998    -0.34200000
opls_238-71    N    0.05828013    0.57664018    0.38381004    -0.34250000
opls_144-72    H    0.02703908    0.65821991    0.44181002    0.11620000
opls_144-73    H    0.71235003    0.56573983    0.21508991    0.09710000
opls_144-74    H    0.10233076    0.78914981    0.34591995    0.10650000
opls_910-75    H    0.23604018    0.79854011    0.45098994    0.26830000
opls_146-76    H    0.80506054    0.97349003    0.55843007    0.11960000
opls_146-77    H    0.24971932    0.96185005    0.41956009    0.11480000
opls_146-78    H    0.18328013    0.05143012    0.58933002    0.11500000
opls_146-79    H    0.76747111    0.02558993    0.44381982    0.10050000
opls_910-80    H    0.75520914    0.20639003    0.55143992    0.26840000
opls_144-81    H    0.77225096    0.21822001    0.65821988    0.10760000
opls_144-82    H    0.15749037    0.34639997    0.56098018    0.11560000
opls_144-83    H    0.05484040    0.44730993    0.78748987    0.11200000
opls_910-84    H    0.28954045    0.45201997    0.65601007    0.26820000
opls_146-85    H    0.93922124    0.55890993    0.58379008    0.11870000
opls_146-86    H    0.40507980    0.41845996    0.46194997    0.12010000
opls_910-87    H    0.22952944    0.35320013    0.79908000    0.26930000
opls_146-88    H    0.79257017    0.42147993    0.97378983    0.11810000
opls_146-89    H    0.23086131    0.54793007    0.95940988    0.12170000
opls_910-90    H    0.73343974    0.66131993    0.20387013    0.26830000
opls_910-91    H    0.07192900    0.55028017    0.34427010    0.26820000
opls_146-92    H    0.75252889    0.58770986    0.02300992    0.12050000
opls_146-93    H    0.16474959    0.46889992    0.05130003    0.11770000
opls_146-94    H    0.94815905    0.44313993    0.41864017    0.12410000
opls_146-95    H    0.35831040    0.58838011    0.53917999    0.11910000
opls_168-96    H    0.58517887    0.09596011    0.43677995    0.38180000
opls_146-97    H    0.10692900    0.14415011    0.62537990    0.10190000
opls_146-98    H    0.32424051    0.86923997    0.38353989    0.10480000
opls_168-99    H    0.80979086    0.83831021    0.51104018    0.32570000
opls_146-100    H    0.30498899    0.49068993    0.86705997    0.12070000
opls_146-101    H    0.08145019    0.52567006    0.14355012    0.11770000
opls_168-102    H    0.80389103    0.33276992    0.83942001    0.30800000
opls_168-103    H    0.56861035    0.66508988    0.09241003    0.32400000
opls_146-104    H    0.42927078    0.38279020    0.51963007    0.12080000
opls_146-105    H    0.31908916    0.62436991    0.48201013    0.10480000
opls_168-106    H    0.86776004    0.51209018    0.67180015    0.30270000
opls_168-107    H    0.79872867    0.43628005    0.34032991    0.30390000
