#======================================================================
# Crystal Data Generated By AuToFF
#----------------------------------------------------------------------

data_AuToFF_phase_1

_cell_length_a                         27.8380
_cell_length_b                         27.8380
_cell_length_c                         7.5132
_cell_angle_alpha                      90.00
_cell_angle_beta                       90.00
_cell_angle_gamma                      90.00
_symmetry_space_group_name_H-M_alt     'P 1'
_symmetry_space_group_IT_number        1

loop_
_space_group_symop_operation_xyz
   'x, y, z'

loop_
   _atom_site_label
   _atom_site_type_symbol
   _atom_site_fract_x
   _atom_site_fract_y
   _atom_site_fract_z
   _atom_site_charge
opls_700-0    C    0.28009986    0.27810008    0.37950008    0.04630000
opls_145-1    C    0.30620016    0.25100007    0.50099957    -0.22340000
opls_145-2    C    0.33520009    0.27379984    0.62599957    -0.22440000
opls_145-3    C    0.33810008    0.32369998    0.62899963    0.17300000
opls_145-4    C    0.31200014    0.35070012    0.50699968    -0.22650000
opls_145-5    C    0.28299986    0.32799986    0.38300059    -0.22330000
opls_142-6    C    0.39200014    0.34100007    0.89199941    0.08950000
opls_700-7    C    0.41500000    0.37130002    0.02599957    0.04610000
opls_145-8    C    0.46120016    0.36330017    0.08899936    -0.22340000
opls_145-9    C    0.48050004    0.39330017    0.21800032    -0.22340000
opls_700-10    C    0.45349989    0.43130002    0.28400016    0.08000000
opls_145-11    C    0.40730009    0.43929988    0.22100037    -0.22370000
opls_145-12    C    0.38799986    0.40929988    0.09199941    -0.22460000
opls_700-13    C    0.47319994    0.46550004    0.40999973    -0.07470000
opls_624-14    C    0.45550004    0.47689992    0.58199968    0.10730000
opls_624-15    C    0.48570012    0.51230009    0.65999973    0.09730000
opls_627-16    C    0.42579999    0.49449996    0.85999973    0.14520000
opls_700-17    C    0.21990014    0.22189992    0.37950008    0.04630000
opls_145-18    C    0.19379984    0.24899993    0.50099957    -0.22330000
opls_145-19    C    0.16479991    0.22620016    0.62599957    -0.22440000
opls_145-20    C    0.16189992    0.17630002    0.62899963    0.17300000
opls_145-21    C    0.18799986    0.14929988    0.50699968    -0.22650000
opls_145-22    C    0.21700014    0.17200014    0.38300059    -0.22340000
opls_142-23    C    0.10799986    0.15899993    0.89199941    0.08950000
opls_700-24    C    0.08500000    0.12869998    0.02599957    0.04610000
opls_145-25    C    0.03879984    0.13669983    0.08899936    -0.22330000
opls_145-26    C    0.01949996    0.10669983    0.21800032    -0.22340000
opls_700-27    C    0.04650011    0.06869998    0.28400016    0.08000000
opls_145-28    C    0.09269991    0.06070012    0.22100037    -0.22370000
opls_145-29    C    0.11200014    0.09070012    0.09199941    -0.22450000
opls_700-30    C    0.02680006    0.03449996    0.40999973    -0.07470000
opls_624-31    C    0.04449996    0.02310008    0.58199968    0.10730000
opls_624-32    C    0.01429988    0.98769991    0.65999973    0.09730000
opls_627-33    C    0.07420001    0.00550004    0.85999973    0.14520000
opls_700-34    C    0.72189992    0.78009986    0.87950008    0.04630000
opls_145-35    C    0.74899993    0.80620016    0.00099957    -0.22340000
opls_145-36    C    0.72620016    0.83520009    0.12599957    -0.22430000
opls_145-37    C    0.67630002    0.83810008    0.12899963    0.17300000
opls_145-38    C    0.64929988    0.81200014    0.00699968    -0.22650000
opls_145-39    C    0.67200014    0.78299986    0.88300059    -0.22340000
opls_142-40    C    0.65899993    0.89200014    0.39199941    0.08950000
opls_700-41    C    0.62869998    0.91500000    0.52599957    0.04610000
opls_145-42    C    0.63669983    0.96120016    0.58899936    -0.22330000
opls_145-43    C    0.60669983    0.98050004    0.71800032    -0.22340000
opls_700-44    C    0.56869998    0.95349989    0.78400016    0.08000000
opls_145-45    C    0.56070012    0.90730009    0.72100037    -0.22370000
opls_145-46    C    0.59070012    0.88799986    0.59199941    -0.22460000
opls_700-47    C    0.53449996    0.97319994    0.90999973    -0.07470000
opls_624-48    C    0.52310008    0.95550004    0.08199968    0.10740000
opls_624-49    C    0.48769991    0.98570012    0.15999973    0.09730000
opls_627-50    C    0.50550004    0.92579999    0.35999973    0.14520000
opls_700-51    C    0.77810008    0.71990014    0.87950008    0.04630000
opls_145-52    C    0.75100007    0.69379984    0.00099957    -0.22340000
opls_145-53    C    0.77379984    0.66479991    0.12599957    -0.22440000
opls_145-54    C    0.82369998    0.66189992    0.12899963    0.17300000
opls_145-55    C    0.85070012    0.68799986    0.00699968    -0.22660000
opls_145-56    C    0.82799986    0.71700014    0.88300059    -0.22340000
opls_142-57    C    0.84100007    0.60799986    0.39199941    0.08950000
opls_700-58    C    0.87130002    0.58500000    0.52599957    0.04610000
opls_145-59    C    0.86330017    0.53879984    0.58899936    -0.22340000
opls_145-60    C    0.89330017    0.51949996    0.71800032    -0.22340000
opls_700-61    C    0.93130002    0.54650011    0.78400016    0.08000000
opls_145-62    C    0.93929988    0.59269991    0.72100037    -0.22350000
opls_145-63    C    0.90929988    0.61200014    0.59199941    -0.22460000
opls_700-64    C    0.96550004    0.52680006    0.90999973    -0.07470000
opls_624-65    C    0.97689992    0.54449996    0.08199968    0.10730000
opls_624-66    C    0.01230009    0.51429988    0.15999973    0.09730000
opls_627-67    C    0.99449996    0.57420001    0.35999973    0.14520000
opls_700-68    C    0.71990014    0.72189992    0.62049992    0.04630000
opls_145-69    C    0.69379984    0.74899993    0.49900043    -0.22340000
opls_145-70    C    0.66479991    0.72620016    0.37400043    -0.22440000
opls_145-71    C    0.66189992    0.67630002    0.37100037    0.17300000
opls_145-72    C    0.68799986    0.64929988    0.49300032    -0.22660000
opls_145-73    C    0.71700014    0.67200014    0.61699941    -0.22340000
opls_142-74    C    0.60799986    0.65899993    0.10800059    0.08950000
opls_700-75    C    0.58500000    0.62869998    0.97400043    0.04610000
opls_145-76    C    0.53879984    0.63669983    0.91100064    -0.22340000
opls_145-77    C    0.51949996    0.60669983    0.78199968    -0.22340000
opls_700-78    C    0.54650011    0.56869998    0.71599984    0.08000000
opls_145-79    C    0.59269991    0.56070012    0.77899963    -0.22360000
opls_145-80    C    0.61200014    0.59070012    0.90800059    -0.22460000
opls_700-81    C    0.52680006    0.53449996    0.59000027    -0.07470000
opls_624-82    C    0.54449996    0.52310008    0.41800032    0.10730000
opls_624-83    C    0.51429988    0.48769991    0.34000027    0.09730000
opls_627-84    C    0.57420001    0.50550004    0.14000027    0.14520000
opls_700-85    C    0.78009986    0.77810008    0.62049992    0.04630000
opls_145-86    C    0.80620016    0.75100007    0.49900043    -0.22340000
opls_145-87    C    0.83520009    0.77379984    0.37400043    -0.22440000
opls_145-88    C    0.83810008    0.82369998    0.37100037    0.17300000
opls_145-89    C    0.81200014    0.85070012    0.49300032    -0.22660000
opls_145-90    C    0.78299986    0.82799986    0.61699941    -0.22340000
opls_142-91    C    0.89200014    0.84100007    0.10800059    0.08950000
opls_700-92    C    0.91500000    0.87130002    0.97400043    0.04610000
opls_145-93    C    0.96120016    0.86330017    0.91100064    -0.22340000
opls_145-94    C    0.98050004    0.89330017    0.78199968    -0.22330000
opls_700-95    C    0.95349989    0.93130002    0.71599984    0.08000000
opls_145-96    C    0.90730009    0.93929988    0.77899963    -0.22370000
opls_145-97    C    0.88799986    0.90929988    0.90800059    -0.22460000
opls_700-98    C    0.97319994    0.96550004    0.59000027    -0.07470000
opls_624-99    C    0.95550004    0.97689992    0.41800032    0.10730000
opls_624-100    C    0.98570012    0.01230009    0.34000027    0.09730000
opls_627-101    C    0.92579999    0.99449996    0.14000027    0.14520000
opls_700-102    C    0.27810008    0.21990014    0.12049992    0.04630000
opls_145-103    C    0.25100007    0.19379984    0.99900043    -0.22340000
opls_145-104    C    0.27379984    0.16479991    0.87400043    -0.22440000
opls_145-105    C    0.32369998    0.16189992    0.87100037    0.17300000
opls_145-106    C    0.35070012    0.18799986    0.99300032    -0.22660000
opls_145-107    C    0.32799986    0.21700014    0.11699941    -0.22330000
opls_142-108    C    0.34100007    0.10799986    0.60800059    0.08950000
opls_700-109    C    0.37130002    0.08500000    0.47400043    0.04610000
opls_145-110    C    0.36330017    0.03879984    0.41100064    -0.22330000
opls_145-111    C    0.39330017    0.01949996    0.28199968    -0.22340000
opls_700-112    C    0.43130002    0.04650011    0.21599984    0.08000000
opls_145-113    C    0.43929988    0.09269991    0.27899963    -0.22370000
opls_145-114    C    0.40929988    0.11200014    0.40800059    -0.22450000
opls_700-115    C    0.46550004    0.02680006    0.09000027    -0.07470000
opls_624-116    C    0.47689992    0.04449996    0.91800032    0.10730000
opls_624-117    C    0.51230009    0.01429988    0.84000027    0.09730000
opls_627-118    C    0.49449996    0.07420001    0.64000027    0.14520000
opls_700-119    C    0.22189992    0.28009986    0.12049992    0.04630000
opls_145-120    C    0.24899993    0.30620016    0.99900043    -0.22340000
opls_145-121    C    0.22620016    0.33520009    0.87400043    -0.22440000
opls_145-122    C    0.17630002    0.33810008    0.87100037    0.17300000
opls_145-123    C    0.14929988    0.31200014    0.99300032    -0.22660000
opls_145-124    C    0.17200014    0.28299986    0.11699941    -0.22330000
opls_142-125    C    0.15899993    0.39200014    0.60800059    0.08950000
opls_700-126    C    0.12869998    0.41500000    0.47400043    0.04610000
opls_145-127    C    0.13669983    0.46120016    0.41100064    -0.22330000
opls_145-128    C    0.10669983    0.48050004    0.28199968    -0.22340000
opls_700-129    C    0.06869998    0.45349989    0.21599984    0.08000000
opls_145-130    C    0.06070012    0.40730009    0.27899963    -0.22370000
opls_145-131    C    0.09070012    0.38799986    0.40800059    -0.22430000
opls_700-132    C    0.03449996    0.47319994    0.09000027    -0.07470000
opls_624-133    C    0.02310008    0.45550004    0.91800032    0.10730000
opls_624-134    C    0.98769991    0.48570012    0.84000027    0.09730000
opls_627-135    C    0.00550004    0.42579999    0.64000027    0.14520000
opls_701-136    C    0.25000000    0.25000000    0.25000000    -0.00880000
opls_701-137    C    0.75000000    0.75000000    0.75000000    -0.00880000
opls_146-138    H    0.30429988    0.21769991    0.49910025    0.21540000
opls_146-139    H    0.35269991    0.25570012    0.70740031    0.21550000
opls_146-140    H    0.31390006    0.38410015    0.50950061    0.21550000
opls_146-141    H    0.26550004    0.34609994    0.30120055    0.21540000
opls_144-142    H    0.39680006    0.30830017    0.91009956    0.10110000
opls_146-143    H    0.47929988    0.33780013    0.04440052    0.21540000
opls_146-144    H    0.51150011    0.38789999    0.26040036    0.21540000
opls_146-145    H    0.38920001    0.46470005    0.26570037    0.21540000
opls_146-146    H    0.35710001    0.41459983    0.04970053    0.21540000
opls_563-147    H    0.40680006    0.49449996    0.96149976    0.08790000
opls_562-148    H    0.39570012    0.44550004    0.69000027    0.25770000
opls_146-149    H    0.19570012    0.28230009    0.49910025    0.21540000
opls_146-150    H    0.14730009    0.24429988    0.70740031    0.21540000
opls_146-151    H    0.18609994    0.11589985    0.50950061    0.21540000
opls_146-152    H    0.23449996    0.15390006    0.30120055    0.21540000
opls_144-153    H    0.10319994    0.19169983    0.91009956    0.10110000
opls_146-154    H    0.02070012    0.16219987    0.04440052    0.21540000
opls_146-155    H    0.98849989    0.11210001    0.26040036    0.21550000
opls_146-156    H    0.11079999    0.03529995    0.26570037    0.21550000
opls_146-157    H    0.14289999    0.08540017    0.04970053    0.21540000
opls_563-158    H    0.09319994    0.00550004    0.96149976    0.08790000
opls_562-159    H    0.10429988    0.05449996    0.69000027    0.25770000
opls_146-160    H    0.78230009    0.80429988    0.99910025    0.21550000
opls_146-161    H    0.74429988    0.85269991    0.20740031    0.21550000
opls_146-162    H    0.61589985    0.81390006    0.00950061    0.21540000
opls_146-163    H    0.65390006    0.76550004    0.80120055    0.21540000
opls_144-164    H    0.69169983    0.89680006    0.41009956    0.10110000
opls_146-165    H    0.66219987    0.97929988    0.54440052    0.21540000
opls_146-166    H    0.61210001    0.01150011    0.76040036    0.21570000
opls_146-167    H    0.53529995    0.88920001    0.76570037    0.21540000
opls_146-168    H    0.58540017    0.85710001    0.54970053    0.21540000
opls_563-169    H    0.50550004    0.90680006    0.46149976    0.08790000
opls_562-170    H    0.55449996    0.89570012    0.19000027    0.25770000
opls_146-171    H    0.71769991    0.69570012    0.99910025    0.21540000
opls_146-172    H    0.75570012    0.64730009    0.20740031    0.21540000
opls_146-173    H    0.88410015    0.68609994    0.00950061    0.21540000
opls_146-174    H    0.84609994    0.73449996    0.80120055    0.21550000
opls_144-175    H    0.80830017    0.60319994    0.41009956    0.10110000
opls_146-176    H    0.83780013    0.52070012    0.54440052    0.21540000
opls_146-177    H    0.88789999    0.48849989    0.76040036    0.21550000
opls_146-178    H    0.96470005    0.61079999    0.76570037    0.21560000
opls_146-179    H    0.91459983    0.64289999    0.54970053    0.21540000
opls_563-180    H    0.99449996    0.59319994    0.46149976    0.08790000
opls_562-181    H    0.94550004    0.60429988    0.19000027    0.25770000
opls_146-182    H    0.69570012    0.78230009    0.50089975    0.21540000
opls_146-183    H    0.64730009    0.74429988    0.29259969    0.21550000
opls_146-184    H    0.68609994    0.61589985    0.49049939    0.21550000
opls_146-185    H    0.73449996    0.65390006    0.69879945    0.21540000
opls_144-186    H    0.60319994    0.69169983    0.08990044    0.10110000
opls_146-187    H    0.52070012    0.66219987    0.95559948    0.21540000
opls_146-188    H    0.48849989    0.61210001    0.73959964    0.21540000
opls_146-189    H    0.61079999    0.53529995    0.73429963    0.21550000
opls_146-190    H    0.64289999    0.58540017    0.95029947    0.21550000
opls_563-191    H    0.59319994    0.50550004    0.03850024    0.08790000
opls_562-192    H    0.60429988    0.55449996    0.30999973    0.25770000
opls_146-193    H    0.80429988    0.71769991    0.50089975    0.21550000
opls_146-194    H    0.85269991    0.75570012    0.29259969    0.21540000
opls_146-195    H    0.81390006    0.88410015    0.49049939    0.21540000
opls_146-196    H    0.76550004    0.84609994    0.69879945    0.21540000
opls_144-197    H    0.89680006    0.80830017    0.08990044    0.10120000
opls_146-198    H    0.97929988    0.83780013    0.95559948    0.21540000
opls_146-199    H    0.01150011    0.88789999    0.73959964    0.21540000
opls_146-200    H    0.88920001    0.96470005    0.73429963    0.21540000
opls_146-201    H    0.85710001    0.91459983    0.95029947    0.21550000
opls_563-202    H    0.90680006    0.99449996    0.03850024    0.08790000
opls_562-203    H    0.89570012    0.94550004    0.30999973    0.25770000
opls_146-204    H    0.21769991    0.19570012    0.00089975    0.21540000
opls_146-205    H    0.25570012    0.14730009    0.79259969    0.21540000
opls_146-206    H    0.38410015    0.18609994    0.99049939    0.21540000
opls_146-207    H    0.34609994    0.23449996    0.19879945    0.21540000
opls_144-208    H    0.30830017    0.10319994    0.58990044    0.10110000
opls_146-209    H    0.33780013    0.02070012    0.45559948    0.21540000
opls_146-210    H    0.38789999    0.98849989    0.23959964    0.21540000
opls_146-211    H    0.46470005    0.11079999    0.23429963    0.21540000
opls_146-212    H    0.41459983    0.14289999    0.45029947    0.21540000
opls_563-213    H    0.49449996    0.09319994    0.53850024    0.08790000
opls_562-214    H    0.44550004    0.10429988    0.80999973    0.25770000
opls_146-215    H    0.28230009    0.30429988    0.00089975    0.21550000
opls_146-216    H    0.24429988    0.35269991    0.79259969    0.21550000
opls_146-217    H    0.11589985    0.31390006    0.99049939    0.21550000
opls_146-218    H    0.15390006    0.26550004    0.19879945    0.21540000
opls_144-219    H    0.19169983    0.39680006    0.58990044    0.10110000
opls_146-220    H    0.16219987    0.47929988    0.45559948    0.21550000
opls_146-221    H    0.11210001    0.51150011    0.23959964    0.21550000
opls_146-222    H    0.03529995    0.38920001    0.23429963    0.21540000
opls_146-223    H    0.08540017    0.35710001    0.45029947    0.21540000
opls_563-224    H    0.00550004    0.40680006    0.53850024    0.08790000
opls_562-225    H    0.05449996    0.39570012    0.80999973    0.25770000
opls_750-226    N    0.36609994    0.35079999    0.75300005    -0.39390000
opls_559-227    N    0.46730009    0.52319994    0.83100011    -0.36200000
opls_557-228    N    0.41849989    0.46589985    0.70600011    -0.32950000
opls_750-229    N    0.13390006    0.14920001    0.75300005    -0.39390000
opls_559-230    N    0.03269991    0.97680006    0.83100011    -0.36200000
opls_557-231    N    0.08150011    0.03410015    0.70600011    -0.32960000
opls_750-232    N    0.64920001    0.86609994    0.25300005    -0.39380000
opls_559-233    N    0.47680006    0.96730009    0.33100011    -0.36200000
opls_557-234    N    0.53410015    0.91849989    0.20600011    -0.32960000
opls_750-235    N    0.85079999    0.63390006    0.25300005    -0.39380000
opls_559-236    N    0.02319994    0.53269991    0.33100011    -0.36200000
opls_557-237    N    0.96589985    0.58150011    0.20600011    -0.32960000
opls_750-238    N    0.63390006    0.64920001    0.24699995    -0.39390000
opls_559-239    N    0.53269991    0.47680006    0.16899989    -0.36200000
opls_557-240    N    0.58150011    0.53410015    0.29399989    -0.32950000
opls_750-241    N    0.86609994    0.85079999    0.24699995    -0.39390000
opls_559-242    N    0.96730009    0.02319994    0.16899989    -0.36180000
opls_557-243    N    0.91849989    0.96589985    0.29399989    -0.32960000
opls_750-244    N    0.35079999    0.13390006    0.74699995    -0.39390000
opls_559-245    N    0.52319994    0.03269991    0.66899989    -0.36190000
opls_557-246    N    0.46589985    0.08150011    0.79399989    -0.32960000
opls_750-247    N    0.14920001    0.36609994    0.74699995    -0.39380000
opls_559-248    N    0.97680006    0.46730009    0.66899989    -0.36190000
opls_557-249    N    0.03410015    0.41849989    0.79399989    -0.32960000
