#======================================================================
# Crystal Data Generated By AuToFF
#----------------------------------------------------------------------

data_AuToFF_phase_1

_cell_length_a                         11.2325
_cell_length_b                         11.2332
_cell_length_c                         20.0000
_cell_angle_alpha                      90.00
_cell_angle_beta                       90.00
_cell_angle_gamma                      120.01
_symmetry_space_group_name_H-M_alt     'P 1'
_symmetry_space_group_IT_number        1

loop_
_space_group_symop_operation_xyz
   'x, y, z'

loop_
   _atom_site_label
   _atom_site_type_symbol
   _atom_site_fract_x
   _atom_site_fract_y
   _atom_site_fract_z
   _atom_site_charge
opls_750-0    N    0.27670993    0.02520954    0.21870000    -0.26950000
opls_750-1    N    0.81114963    0.95496989    0.21896000    -0.26790000
opls_750-2    N    0.20649997    0.42058974    0.21863000    -0.27060000
opls_145-3    C    0.18247001    0.07353039    0.21879000    0.21650000
opls_145-4    C    0.95360035    0.04911039    0.21895000    0.21770000
opls_700-5    C    0.33677973    0.84789977    0.22099000    0.05880000
opls_145-6    C    0.47947954    0.94171952    0.22112000    -0.15310000
opls_700-7    C    0.57383924    0.89496950    0.22121000    0.05870000
opls_145-8    C    0.52491959    0.75227993    0.22130000    -0.15680000
opls_700-9    C    0.38379930    0.65791944    0.22116000    0.05870000
opls_145-10    C    0.28997957    0.70680982    0.22105000    -0.15680000
opls_142-11    C    0.23733963    0.89617950    0.22099000    0.07700000
opls_142-12    C    0.72156990    0.99447944    0.22132000    0.07830000
opls_142-13    C    0.33556952    0.51019968    0.22129000    0.07860000
opls_145-14    C    0.15816968    0.27801942    0.21875000    0.21770000
opls_145-15    C    0.01490978    0.19355996    0.21872000    -0.22310000
opls_145-16    C    0.03822996    0.99048962    0.21881000    -0.22300000
opls_145-17    C    0.24125993    0.21678025    0.21858000    -0.20510000
opls_146-18    H    0.51382914    0.05144917    0.22114000    0.11950000
opls_146-19    H    0.60014984    0.71767927    0.22145000    0.11830000
opls_146-20    H    0.18014011    0.63158008    0.22103000    0.11970000
opls_144-21    H    0.74883938    0.10362928    0.22361000    0.05510000
opls_144-22    H    0.41737012    0.48280967    0.22392000    0.05250000
opls_144-23    H    0.12811017    0.81431995    0.22318000    0.04470000
opls_146-24    H    0.95361973    0.24413941    0.21831000    0.11730000
opls_146-25    H    0.98734942    0.87842941    0.21848000    0.11910000
opls_146-26    H    0.35321998    0.27798961    0.21804000    0.11770000
