#======================================================================
# Crystal Data Generated By AuToFF
#----------------------------------------------------------------------

data_AuToFF_phase_1

_cell_length_a                         38.7441
_cell_length_b                         38.7441
_cell_length_c                         3.4690
_cell_angle_alpha                      90.00
_cell_angle_beta                       90.00
_cell_angle_gamma                      120.00
_symmetry_space_group_name_H-M_alt     'P 1'
_symmetry_space_group_IT_number        1

loop_
_space_group_symop_operation_xyz
   'x, y, z'

loop_
   _atom_site_label
   _atom_site_type_symbol
   _atom_site_fract_x
   _atom_site_fract_y
   _atom_site_fract_z
   _atom_site_charge
opls_700-0    C    0.68764994    0.37553992    0.50000000    -0.05270000
opls_700-1    C    0.70967984    0.35491994    0.50000000    0.02140000
opls_142-2    C    0.75534994    0.38041991    0.50000000    -0.10460000
opls_142-3    C    0.78347014    0.36958016    0.50000000    -0.13920000
opls_145-4    C    0.85267006    0.38162992    0.50000000    -0.12320000
opls_145-5    C    0.89408005    0.40603999    0.50000000    -0.13340000
opls_700-6    C    0.91229017    0.44808018    0.50000000    0.06010000
opls_145-7    C    0.88648996    0.46406993    0.50000000    -0.13610000
opls_145-8    C    0.84505008    0.43957015    0.50000000    -0.12540000
opls_700-9    C    0.82742011    0.39781012    0.50000000    0.10380000
opls_145-10    C    0.97552006    0.51666017    0.50000000    -0.12780000
opls_145-11    C    0.01693016    0.54117008    0.50000000    -0.12780000
opls_700-12    C    0.04271008    0.52528017    0.50000000    0.05970000
opls_261-13    C    0.71008007    0.41863992    0.50000000    0.22220000
opls_700-14    C    0.62445996    0.31210993    0.50000000    -0.05270000
opls_700-15    C    0.64508021    0.35476019    0.50000000    0.02140000
opls_142-16    C    0.61958016    0.37493015    0.50000000    -0.10460000
opls_142-17    C    0.63042014    0.41389017    0.50000000    -0.13920000
opls_145-18    C    0.61837004    0.47104002    0.50000000    -0.12320000
opls_145-19    C    0.59396004    0.48804010    0.50000000    -0.13340000
opls_700-20    C    0.55191989    0.46421000    0.50000000    0.06010000
opls_145-21    C    0.53592997    0.42242016    0.50000000    -0.13610000
opls_145-22    C    0.56043007    0.40547999    0.50000000    -0.12540000
opls_700-23    C    0.60219002    0.42961020    0.50000000    0.10380000
opls_145-24    C    0.48333990    0.45886002    0.50000000    -0.12780000
opls_145-25    C    0.45883001    0.47575996    0.50000000    -0.12780000
opls_700-26    C    0.47472001    0.51742999    0.50000000    0.05970000
opls_261-27    C    0.58136009    0.29144017    0.50000000    0.22220000
opls_700-28    C    0.68789010    0.31235015    0.50000000    -0.05270000
opls_700-29    C    0.64524010    0.29032017    0.50000000    0.02140000
opls_142-30    C    0.62506990    0.24464994    0.50000000    -0.10460000
opls_142-31    C    0.58610987    0.21652996    0.50000000    -0.13920000
opls_145-32    C    0.52896016    0.14733006    0.50000000    -0.12320000
opls_145-33    C    0.51195991    0.10591991    0.50000000    -0.13340000
opls_700-34    C    0.53579009    0.08771012    0.50000000    0.06010000
opls_145-35    C    0.57758006    0.11350991    0.50000000    -0.13610000
opls_145-36    C    0.59452000    0.15495016    0.50000000    -0.12540000
opls_700-37    C    0.57039002    0.17257998    0.50000000    0.10380000
opls_145-38    C    0.54113994    0.02448010    0.50000000    -0.12780000
opls_145-39    C    0.52424024    0.98307025    0.50000000    -0.12780000
opls_700-40    C    0.48257005    0.95729013    0.50000000    0.05970000
opls_261-41    C    0.70855983    0.28991991    0.50000000    0.22220000
opls_700-42    C    0.31235006    0.62446008    0.50000000    -0.05270000
opls_700-43    C    0.29032016    0.64508006    0.50000000    0.02140000
opls_142-44    C    0.24465006    0.61958009    0.50000000    -0.10460000
opls_142-45    C    0.21653001    0.63042013    0.50000000    -0.13920000
opls_145-46    C    0.14732994    0.61837008    0.50000000    -0.12320000
opls_145-47    C    0.10591995    0.59396001    0.50000000    -0.13340000
opls_700-48    C    0.08770998    0.55192012    0.50000000    0.06010000
opls_145-49    C    0.11351004    0.53593007    0.50000000    -0.13610000
opls_145-50    C    0.15495006    0.56043014    0.50000000    -0.12540000
opls_700-51    C    0.17258004    0.60219018    0.50000000    0.10380000
opls_145-52    C    0.02448009    0.48334012    0.50000000    -0.12780000
opls_145-53    C    0.98306984    0.45882992    0.50000000    -0.12780000
opls_700-54    C    0.95729006    0.47472012    0.50000000    0.05970000
opls_261-55    C    0.28991993    0.58136008    0.50000000    0.22220000
opls_700-56    C    0.37554004    0.68789007    0.50000000    -0.05270000
opls_700-57    C    0.35491994    0.64524011    0.50000000    0.02140000
opls_142-58    C    0.38041999    0.62507015    0.50000000    -0.10460000
opls_142-59    C    0.36958001    0.58611013    0.50000000    -0.13920000
opls_145-60    C    0.38162996    0.52895998    0.50000000    -0.12320000
opls_145-61    C    0.40604011    0.51196020    0.50000000    -0.13340000
opls_700-62    C    0.44808011    0.53579000    0.50000000    0.06010000
opls_145-63    C    0.46407018    0.57758014    0.50000000    -0.13610000
opls_145-64    C    0.43956993    0.59452001    0.50000000    -0.12540000
opls_700-65    C    0.39781013    0.57039010    0.50000000    0.10380000
opls_145-66    C    0.51666010    0.54113998    0.50000000    -0.12780000
opls_145-67    C    0.54116999    0.52424004    0.50000000    -0.12780000
opls_700-68    C    0.52527999    0.48257001    0.50000000    0.05970000
opls_261-69    C    0.41864005    0.70856012    0.50000000    0.22220000
opls_700-70    C    0.31211005    0.68765015    0.50000000    -0.05270000
opls_700-71    C    0.35476005    0.70968013    0.50000000    0.02140000
opls_142-72    C    0.37493010    0.75535006    0.50000000    -0.10460000
opls_142-73    C    0.41389013    0.78347004    0.50000000    -0.13920000
opls_145-74    C    0.47103999    0.85267024    0.50000000    -0.12320000
opls_145-75    C    0.48804009    0.89408009    0.50000000    -0.13340000
opls_700-76    C    0.46421006    0.91229018    0.50000000    0.06010000
opls_145-77    C    0.42241994    0.88649009    0.50000000    -0.13610000
opls_145-78    C    0.40548015    0.84505014    0.50000000    -0.12540000
opls_700-79    C    0.42960998    0.82742002    0.50000000    0.10380000
opls_145-80    C    0.45886021    0.97552019    0.50000000    -0.12780000
opls_145-81    C    0.47575991    0.01693004    0.50000000    -0.12780000
opls_700-82    C    0.51742995    0.04270987    0.50000000    0.05970000
opls_261-83    C    0.29144017    0.71008009    0.50000000    0.22230000
opls_144-84    H    0.76725019    0.41192017    0.50000000    0.10500000
opls_144-85    H    0.77598983    0.33919991    0.50000000    0.22840000
opls_146-86    H    0.84023993    0.34960006    0.50000000    0.11330000
opls_146-87    H    0.91093008    0.39087996    0.50000000    0.09140000
opls_146-88    H    0.89729010    0.49559016    0.50000000    0.09020000
opls_146-89    H    0.82763994    0.45425005    0.50000000    0.10560000
opls_146-90    H    0.95859010    0.53175016    0.50000000    0.09020000
opls_146-91    H    0.02777006    0.57270015    0.50000000    0.09020000
opls_144-92    H    0.58808002    0.35533003    0.50000000    0.10500000
opls_144-93    H    0.66079996    0.43679010    0.50000000    0.22840000
opls_146-94    H    0.65040007    0.49064014    0.50000000    0.10920000
opls_146-95    H    0.60911996    0.52005000    0.50000000    0.09140000
opls_146-96    H    0.50441004    0.40170004    0.50000000    0.09020000
opls_146-97    H    0.54574988    0.37338992    0.50000000    0.10560000
opls_146-98    H    0.46825002    0.42683999    0.50000000    0.09020000
opls_146-99    H    0.42730009    0.45506994    0.50000000    0.09020000
opls_144-100    H    0.64466994    0.23275009    0.50000000    0.10500000
opls_144-101    H    0.56320995    0.22400999    0.50000000    0.22840000
opls_146-102    H    0.50936016    0.15976011    0.50000000    0.10920000
opls_146-103    H    0.47994996    0.08907004    0.50000000    0.09140000
opls_146-104    H    0.59830000    0.10271010    0.50000000    0.09020000
opls_146-105    H    0.62660991    0.17236003    0.50000000    0.10560000
opls_146-106    H    0.57316003    0.04141015    0.50000000    0.09030000
opls_146-107    H    0.54493000    0.97223021    0.50000000    0.09020000
opls_144-108    H    0.23274996    0.58808012    0.50000000    0.10500000
opls_144-109    H    0.22401017    0.66080009    0.50000000    0.22840000
opls_146-110    H    0.15976022    0.65040024    0.50000000    0.10920000
opls_146-111    H    0.08906992    0.60912004    0.50000000    0.09140000
opls_146-112    H    0.10271005    0.50441014    0.50000000    0.09020000
opls_146-113    H    0.17236006    0.54574995    0.50000000    0.10560000
opls_146-114    H    0.04141005    0.46825013    0.50000000    0.09020000
opls_146-115    H    0.97223009    0.42730015    0.50000000    0.09020000
opls_144-116    H    0.41191998    0.64466997    0.50000000    0.10500000
opls_144-117    H    0.33920019    0.56321019    0.50000000    0.22840000
opls_146-118    H    0.34960008    0.50936016    0.50000000    0.11330000
opls_146-119    H    0.39088004    0.47995000    0.50000000    0.09140000
opls_146-120    H    0.49558996    0.59829996    0.50000000    0.09020000
opls_146-121    H    0.45425012    0.62661008    0.50000000    0.10560000
opls_146-122    H    0.53174998    0.57316001    0.50000000    0.09020000
opls_146-123    H    0.57269991    0.54493006    0.50000000    0.09020000
opls_144-124    H    0.35533021    0.76725020    0.50000000    0.10500000
opls_144-125    H    0.43679005    0.77599001    0.50000000    0.22840000
opls_146-126    H    0.49063999    0.84024019    0.50000000    0.10920000
opls_146-127    H    0.52005019    0.91093026    0.50000000    0.09140000
opls_146-128    H    0.40170014    0.89729020    0.50000000    0.09020000
opls_146-129    H    0.37339023    0.82764026    0.50000000    0.10560000
opls_146-130    H    0.42684012    0.95859015    0.50000000    0.09020000
opls_146-131    H    0.45507015    0.02777009    0.50000000    0.09020000
opls_262-132    N    0.72908023    0.45312021    0.50000000    -0.30860000
opls_262-133    N    0.54687997    0.27596006    0.50000000    -0.30860000
opls_262-134    N    0.72403995    0.27092003    0.50000000    -0.30860000
opls_262-135    N    0.27091992    0.54688009    0.50000000    -0.30860000
opls_262-136    N    0.45312018    0.72404024    0.50000000    -0.30860000
opls_262-137    N    0.27596005    0.72907997    0.50000000    -0.30860000
