#======================================================================
# Crystal Data Generated By AuToFF
#----------------------------------------------------------------------

data_AuToFF_phase_1

_cell_length_a                         29.8993
_cell_length_b                         29.8993
_cell_length_c                         3.3970
_cell_angle_alpha                      90.00
_cell_angle_beta                       90.00
_cell_angle_gamma                      120.00
_symmetry_space_group_name_H-M_alt     'P 1'
_symmetry_space_group_IT_number        1

loop_
_space_group_symop_operation_xyz
   'x, y, z'

loop_
   _atom_site_label
   _atom_site_type_symbol
   _atom_site_fract_x
   _atom_site_fract_y
   _atom_site_fract_z
   _atom_site_charge
opls_700-0    C    0.94639002    0.46221009    0.58564027    -0.10950000
opls_145-1    C    0.98141025    0.44495019    0.60324993    -0.24180000
opls_166-2    C    0.03393981    0.47888992    0.63796880    0.19750000
opls_234-3    C    0.89151012    0.42386000    0.54649102    0.38960000
opls_142-4    C    0.77225999    0.40984994    0.24224021    0.02720000
opls_700-5    C    0.71837986    0.37047991    0.22884898    0.05690000
opls_145-6    C    0.70359009    0.31872995    0.22692964    -0.14170000
opls_181-7    C    0.93988012    0.57824014    0.46821019    -0.21170000
opls_700-8    C    0.05193011    0.53165016    0.62440977    -0.10940000
opls_145-9    C    0.01678995    0.54878995    0.63251987    -0.24180000
opls_166-10    C    0.96422995    0.51484018    0.61296144    0.20000000
opls_234-11    C    0.10698008    0.57024008    0.61614071    0.38960000
opls_142-12    C    0.22851024    0.58804026    0.33662938    0.02720000
opls_700-13    C    0.28200015    0.62848007    0.33163968    0.05690000
opls_145-14    C    0.29537012    0.67986004    0.33025022    -0.14170000
opls_181-15    C    0.05272992    0.41314999    0.85644981    -0.21170000
opls_700-16    C    0.53778992    0.48418004    0.58564027    -0.10950000
opls_145-17    C    0.55505021    0.53646024    0.60324993    -0.24180000
opls_166-18    C    0.52111006    0.55505020    0.63796880    0.19750000
opls_234-19    C    0.57614006    0.46765005    0.54649102    0.38960000
opls_142-20    C    0.59015000    0.36240994    0.24224021    0.02720000
opls_700-21    C    0.62951994    0.34790015    0.22884898    0.05690000
opls_145-22    C    0.68126984    0.38485994    0.22692964    -0.14170000
opls_181-23    C    0.42176002    0.36163987    0.46821019    -0.21170000
opls_700-24    C    0.46834996    0.52028015    0.62440977    -0.10940000
opls_145-25    C    0.45121007    0.46799995    0.63251987    -0.24180000
opls_166-26    C    0.48515991    0.44938991    0.61296144    0.20000000
opls_234-27    C    0.42976018    0.53674023    0.61614071    0.38960000
opls_142-28    C    0.41195985    0.64046992    0.33662938    0.02720000
opls_700-29    C    0.37151986    0.65351989    0.33163968    0.05690000
opls_145-30    C    0.32013993    0.61551004    0.33025022    -0.14170000
opls_181-31    C    0.58685016    0.63958013    0.85644981    -0.21170000
opls_700-32    C    0.51582007    0.05360988    0.58564027    -0.10950000
opls_145-33    C    0.46354006    0.01858996    0.60324993    -0.24180000
opls_166-34    C    0.44494998    0.96606027    0.63796880    0.19750000
opls_234-35    C    0.53234981    0.10848995    0.54649102    0.38960000
opls_142-36    C    0.63759001    0.22774011    0.24224021    0.02720000
opls_700-37    C    0.65209987    0.28161994    0.22884898    0.05690000
opls_145-38    C    0.61514007    0.29641011    0.22692964    -0.14170000
opls_181-39    C    0.63835986    0.06011999    0.46821019    -0.21170000
opls_700-40    C    0.47972012    0.94807008    0.62440977    -0.10940000
opls_145-41    C    0.53199998    0.98321010    0.63251987    -0.24180000
opls_166-42    C    0.55060980    0.03576991    0.61296144    0.20000000
opls_234-43    C    0.46325993    0.89302008    0.61614071    0.38960000
opls_142-44    C    0.35953010    0.77149020    0.33662938    0.02720000
opls_700-45    C    0.34648000    0.71800004    0.33163968    0.05690000
opls_145-46    C    0.38448996    0.70462992    0.33025022    -0.14160000
opls_181-47    C    0.36042011    0.94727027    0.85644981    -0.21170000
opls_238-48    N    0.85777984    0.43539994    0.37443921    -0.26660000
opls_750-49    N    0.80617995    0.39855022    0.35325876    -0.10830000
opls_238-50    N    0.14205018    0.56029011    0.44821019    -0.27440000
opls_750-51    N    0.19344981    0.59791995    0.44342067    -0.10830000
opls_238-52    N    0.56459999    0.42238009    0.37443921    -0.26660000
opls_750-53    N    0.60145010    0.40763009    0.35325876    -0.10830000
opls_238-54    N    0.43970987    0.58175994    0.44821019    -0.27440000
opls_750-55    N    0.40208023    0.59553016    0.44342067    -0.10830000
opls_238-56    N    0.57761984    0.14221997    0.37443921    -0.26660000
opls_750-57    N    0.59237014    0.19382008    0.35325876    -0.10830000
opls_238-58    N    0.41823994    0.85794995    0.44821019    -0.27440000
opls_750-59    N    0.40447015    0.80655028    0.44342067    -0.10830000
opls_236-60    O    0.87632000    0.38068013    0.66581984    -0.41680000
opls_179-61    O    0.92940003    0.53214024    0.66355019    -0.16710000
opls_236-62    O    0.12106023    0.61245020    0.75277009    -0.42290000
opls_179-63    O    0.06898999    0.46158020    0.67753017    -0.16930000
opls_236-64    O    0.61932002    0.49564003    0.66581984    -0.41680000
opls_179-65    O    0.46786002    0.39725994    0.66355019    -0.16700000
opls_236-66    O    0.38754996    0.50861006    0.75277009    -0.42290000
opls_179-67    O    0.53841984    0.60740995    0.67753017    -0.16930000
opls_236-68    O    0.50435998    0.12367984    0.66581984    -0.41670000
opls_179-69    O    0.60273995    0.07059982    0.66355019    -0.16700000
opls_236-70    O    0.49139001    0.87894012    0.75277009    -0.42290000
opls_179-71    O    0.39259003    0.93101023    0.67753017    -0.16930000
opls_146-72    H    0.96749984    0.40458995    0.58327053    0.21720000
opls_910-73    H    0.87008001    0.47051022    0.23942891    0.20420000
opls_144-74    H    0.78324011    0.44889017    0.17441860    0.09220000
opls_146-75    H    0.69278016    0.42484016    0.22888137    0.21260000
opls_146-76    H    0.03056005    0.58906021    0.66126877    0.21720000
opls_910-77    H    0.13092993    0.52628010    0.29831911    0.21110000
opls_144-78    H    0.21867017    0.54950017    0.26153076    0.09220000
opls_146-79    H    0.30971999    0.57581019    0.32992935    0.21260000
opls_185-80    H    0.97330026    0.59338020    0.26863998    0.08780000
opls_185-81    H    0.94654001    0.60811013    0.68654107    0.09000000
opls_185-82    H    0.90595017    0.57071008    0.29284957    0.08780000
opls_185-83    H    0.08468010    0.41595996    0.03473948    0.08780000
opls_185-84    H    0.04352986    0.38344993    0.63042096    0.09000000
opls_185-85    H    0.01919017    0.40079016    0.05017957    0.09070000
opls_146-86    H    0.59540988    0.56291007    0.58327053    0.21720000
opls_910-87    H    0.52949012    0.39957016    0.23942891    0.20430000
opls_144-88    H    0.55111011    0.33435006    0.17441860    0.09220000
opls_146-89    H    0.57515997    0.26794009    0.22888137    0.21260000
opls_146-90    H    0.41094003    0.44149991    0.66126877    0.21720000
opls_910-91    H    0.47372008    0.60465019    0.29831911    0.21110000
opls_144-92    H    0.45050015    0.66917012    0.26153076    0.09220000
opls_146-93    H    0.42419021    0.73391018    0.32992935    0.21260000
opls_185-94    H    0.40661997    0.37992010    0.26863998    0.08780000
opls_185-95    H    0.39189023    0.33843023    0.68654107    0.09000000
opls_185-96    H    0.42928993    0.33523986    0.29284957    0.08780000
opls_185-97    H    0.58404019    0.66872020    0.03473948    0.08780000
opls_185-98    H    0.61655016    0.66008021    0.63042096    0.09000000
opls_185-99    H    0.59921011    0.61839995    0.05017957    0.09070000
opls_146-100    H    0.43708995    0.03249999    0.58327053    0.21720000
opls_910-101    H    0.60043006    0.12992000    0.23942891    0.20430000
opls_144-102    H    0.66564998    0.21676016    0.17441860    0.09220000
opls_146-103    H    0.73206007    0.30722014    0.22888137    0.21260000
opls_146-104    H    0.55850012    0.96944027    0.66126877    0.21720000
opls_910-105    H    0.39535018    0.86907010    0.29831911    0.22460000
opls_144-106    H    0.33083020    0.78133010    0.26153076    0.09220000
opls_146-107    H    0.26608999    0.69028001    0.32992935    0.21260000
opls_185-108    H    0.62007997    0.02670009    0.26863998    0.08780000
opls_185-109    H    0.66156996    0.05346003    0.68654107    0.09000000
opls_185-110    H    0.66475989    0.09405006    0.29284957    0.08780000
opls_185-111    H    0.33128023    0.91532022    0.03473948    0.08780000
opls_185-112    H    0.33992018    0.95647024    0.63042096    0.09000000
opls_185-113    H    0.38160025    0.98081028    0.05017957    0.09070000
