#======================================================================
# Crystal Data Generated By AuToFF
#----------------------------------------------------------------------

data_AuToFF_phase_1

_cell_length_a                         26.0602
_cell_length_b                         25.7396
_cell_length_c                         3.4986
_cell_angle_alpha                      89.27
_cell_angle_beta                       89.58
_cell_angle_gamma                      119.89
_symmetry_space_group_name_H-M_alt     'P 1'
_symmetry_space_group_IT_number        1

loop_
_space_group_symop_operation_xyz
   'x, y, z'

loop_
   _atom_site_label
   _atom_site_type_symbol
   _atom_site_fract_x
   _atom_site_fract_y
   _atom_site_fract_z
   _atom_site_charge
opls_520-0    N    0.62332001    0.36040017    0.54476140    -0.36000000
opls_520-1    N    0.63402009    0.27560004    0.61652201    -0.34790000
opls_520-2    N    0.71741022    0.36998005    0.51497193    -0.35000000
opls_520-3    N    0.02943011    0.97760006    0.56609146    -0.23170000
opls_262-4    N    0.82185023    0.91700020    0.68402003    -0.24680000
opls_262-5    N    0.08991006    0.18311035    0.82119169    -0.24680000
opls_531-6    C    0.59871017    0.30029029    0.60173019    0.44000000
opls_531-7    C    0.69341028    0.31029034    0.57336158    0.44330000
opls_531-8    C    0.68282034    0.39540026    0.50095201    0.44000000
opls_700-9    C    0.53412011    0.26162025    0.63653127    -0.00630000
opls_700-10    C    0.73158021    0.28345025    0.58064027    0.00430000
opls_700-11    C    0.71058020    0.46060993    0.44440061    0.00630000
opls_523-12    C    0.49661998    0.28445002    0.55019040    -0.09110000
opls_145-13    C    0.43550983    0.24732990    0.57065137    -0.09270000
opls_700-14    C    0.41056025    0.18676999    0.68310234    0.08020000
opls_145-15    C    0.44810993    0.16399998    0.77120999    -0.09280000
opls_523-16    C    0.50933026    0.20102012    0.74667227    -0.07420000
opls_523-17    C    0.79111999    0.31739001    0.46368086    -0.09120000
opls_145-18    C    0.82688032    0.29151027    0.45580180    -0.09120000
opls_700-19    C    0.80410006    0.23144031    0.57108020    0.08020000
opls_145-20    C    0.74480992    0.19796001    0.69663053    -0.09270000
opls_523-21    C    0.70874996    0.22357017    0.69823150    -0.09100000
opls_523-22    C    0.67982009    0.49086026    0.53211088    -0.09270000
opls_145-23    C    0.70857032    0.55331033    0.50662973    -0.07430000
opls_700-24    C    0.76828019    0.58635030    0.38828948    0.07760000
opls_145-25    C    0.79802009    0.55561001    0.28609043    -0.09110000
opls_523-26    C    0.76969016    0.49355030    0.31686050    -0.09110000
opls_700-27    C    0.80027998    0.65260995    0.38111942    0.07970000
opls_700-28    C    0.84162013    0.20346019    0.55245177    0.07570000
opls_700-29    C    0.34556995    0.14799995    0.70914097    0.07900000
opls_145-30    C    0.86032008    0.68474037    0.47891008    -0.09280000
opls_145-31    C    0.89101003    0.74707001    0.47095955    -0.09280000
opls_700-32    C    0.86185031    0.77876020    0.37323179    0.11700000
opls_145-33    C    0.80199003    0.74676997    0.27395165    -0.09280000
opls_145-34    C    0.77145013    0.68431027    0.27723936    -0.09260000
opls_145-35    C    0.81663007    0.14265001    0.46137089    -0.09270000
opls_145-36    C    0.85169030    0.11606019    0.44585006    -0.09240000
opls_700-37    C    0.91248014    0.15011987    0.51377120    0.11380000
opls_145-38    C    0.93806015    0.21098027    0.59423994    -0.10860000
opls_145-39    C    0.90275018    0.23733013    0.61998125    -0.07420000
opls_145-40    C    0.31783013    0.08751013    0.60307958    -0.07640000
opls_145-41    C    0.25612017    0.05258015    0.60728213    -0.09270000
opls_700-42    C    0.22149014    0.07792003    0.71146237    0.11670000
opls_145-43    C    0.24935027    0.13744028    0.83549178    -0.09110000
opls_145-44    C    0.31059031    0.17202034    0.83354203    -0.10850000
opls_142-45    C    0.89165024    0.84475035    0.37006129    -0.08030000
opls_142-46    C    0.94241041    0.87995040    0.54785184    -0.13350000
opls_521-47    C    0.96949006    0.94562010    0.56711208    0.21840000
opls_142-48    C    0.94977012    0.12276021    0.49536005    -0.09110000
opls_142-49    C    0.93334035    0.07028029    0.66967992    -0.07860000
opls_700-50    C    0.96772024    0.03875005    0.64091964    0.03520000
opls_142-51    C    0.15659012    0.04255014    0.68501206    -0.07630000
opls_142-52    C    0.12541012    0.06926987    0.59738184    -0.13330000
opls_521-53    C    0.06037994    0.03789002    0.60383146    0.22410000
opls_700-54    C    0.93692014    0.97572024    0.61303132    -0.07150000
opls_700-55    C    0.03020020    0.06989005    0.65147175    -0.06510000
opls_423-56    C    0.87292025    0.94293026    0.65216074    0.28100000
opls_423-57    C    0.06329007    0.13286990    0.74609192    0.28100000
opls_146-58    H    0.42856996    0.11503008    0.86332007    0.05000000
opls_526-59    H    0.53966033    0.18221025    0.81613149    0.05000000
opls_146-60    H    0.22158026    0.15762027    0.93867142    0.05000000
opls_146-61    H    0.33281027    0.22032029    0.93352259    0.05000000
opls_526-62    H    0.51618025    0.33362016    0.46280032    0.05000000
opls_146-63    H    0.40517986    0.26592996    0.49592039    0.05000000
opls_526-64    H    0.81039000    0.36645027    0.37450113    0.05000000
opls_146-65    H    0.87500016    0.31907996    0.35534095    0.05000000
opls_146-66    H    0.72598010    0.14949005    0.79804053    0.05000000
opls_526-67    H    0.66049020    0.19584994    0.79535033    0.05000000
opls_526-68    H    0.63125021    0.46443996    0.62440964    0.05000000
opls_146-69    H    0.68366018    0.57782998    0.58192963    0.05000000
opls_146-70    H    0.84579034    0.58161025    0.17688143    0.05000000
opls_526-71    H    0.79478016    0.46936029    0.23768111    0.05000000
opls_146-72    H    0.88436003    0.65972015    0.56585989    0.05000000
opls_146-73    H    0.94000028    0.77264036    0.54388944    0.05000000
opls_146-74    H    0.77791010    0.77185994    0.18962915    0.05000000
opls_146-75    H    0.72283022    0.65874010    0.19530973    0.05000000
opls_146-76    H    0.76735034    0.11489024    0.39975928    0.05000000
opls_146-77    H    0.83098005    0.06648996    0.37778026    0.05000000
opls_146-78    H    0.98782023    0.23903031    0.63876977    0.05000000
opls_146-79    H    0.92333006    0.28660003    0.69611022    0.05000000
opls_146-80    H    0.34573008    0.06678006    0.51315940    0.05000000
opls_146-81    H    0.23393007    0.00341021    0.52584137    0.05000000
opls_144-82    H    0.87144995    0.86881996    0.20892083    0.05000000
opls_144-83    H    0.96718022    0.85943044    0.69534118    0.05000000
opls_144-84    H    0.99365992    0.14625993    0.33024003    0.05000000
opls_144-85    H    0.89103025    0.04757008    0.85134138    0.05000000
opls_144-86    H    0.13267033    0.99204021    0.73949078    0.05000000
opls_144-87    H    0.14923021    0.11884002    0.51232175    0.04940000
