#======================================================================
# Crystal Data Generated By AuToFF
#----------------------------------------------------------------------

data_AuToFF_phase_1

_cell_length_a                         46.9090
_cell_length_b                         46.9090
_cell_length_c                         3.3690
_cell_angle_alpha                      90.00
_cell_angle_beta                       90.00
_cell_angle_gamma                      120.00
_symmetry_space_group_name_H-M_alt     'P 1'
_symmetry_space_group_IT_number        1

loop_
_space_group_symop_operation_xyz
   'x, y, z'

loop_
   _atom_site_label
   _atom_site_type_symbol
   _atom_site_fract_x
   _atom_site_fract_y
   _atom_site_fract_z
   _atom_site_charge
opls_261-0    C    0.98099001    0.49049992    0.50000000    -0.08800000
opls_261-1    C    0.95082997    0.47540997    0.50000000    -0.00660000
opls_700-2    C    0.91464996    0.45732994    0.50000000    0.08330000
opls_145-3    C    0.84434004    0.42217003    0.50000000    -0.20350000
opls_261-4    C    0.50949989    0.49049992    0.50000000    -0.08800000
opls_261-5    C    0.52458000    0.47540997    0.50000000    -0.00660000
opls_700-6    C    0.54266996    0.45732994    0.50000000    0.08330000
opls_145-7    C    0.57782999    0.42217003    0.50000000    -0.20350000
opls_261-8    C    0.50950010    0.01901001    0.50000000    -0.08800000
opls_261-9    C    0.52458008    0.04916997    0.50000000    -0.00660000
opls_700-10    C    0.54267008    0.08534996    0.50000000    0.08330000
opls_145-11    C    0.57782997    0.15565994    0.50000000    -0.20350000
opls_261-12    C    0.01900987    0.50949983    0.50000000    -0.08800000
opls_261-13    C    0.04917003    0.52459003    0.50000000    -0.00660000
opls_700-14    C    0.08535004    0.54267006    0.50000000    0.08330000
opls_145-15    C    0.15565996    0.57782997    0.50000000    -0.20350000
opls_261-16    C    0.49049999    0.50949983    0.50000000    -0.08800000
opls_261-17    C    0.47540998    0.52459003    0.50000000    -0.00660000
opls_700-18    C    0.45733004    0.54267006    0.50000000    0.08270000
opls_145-19    C    0.42217001    0.57782997    0.50000000    -0.20350000
opls_261-20    C    0.49049990    0.98098999    0.50000000    -0.08800000
opls_261-21    C    0.47540999    0.95082978    0.50000000    -0.00660000
opls_700-22    C    0.45732980    0.91464980    0.50000000    0.08330000
opls_145-23    C    0.42216991    0.84433982    0.50000000    -0.20350000
opls_145-24    C    0.89679985    0.47411986    0.50000000    -0.12040000
opls_145-25    C    0.86209002    0.45670003    0.50000000    -0.04210000
opls_166-26    C    0.75551004    0.39131000    0.50000000    0.19330000
opls_145-27    C    0.72604003    0.39212995    0.50000000    -0.27650000
opls_147-28    C    0.69535985    0.36221984    0.50000000    0.00160000
opls_145-29    C    0.52588010    0.42268007    0.50000000    -0.12000000
opls_145-30    C    0.54330993    0.40540006    0.50000000    -0.04820000
opls_166-31    C    0.60868996    0.36419993    0.50000000    0.19330000
opls_145-32    C    0.60786996    0.33391000    0.50000000    -0.27650000
opls_147-33    C    0.63778001    0.33314002    0.50000000    0.00160000
opls_145-34    C    0.57732005    0.10320007    0.50000000    -0.11460000
opls_145-35    C    0.59459998    0.13791001    0.50000000    -0.04820000
opls_166-36    C    0.63580000    0.24449007    0.50000000    0.19330000
opls_145-37    C    0.66609000    0.27396005    0.50000000    -0.27650000
opls_147-38    C    0.66686002    0.30463990    0.50000000    0.00160000
opls_145-39    C    0.10320003    0.52587990    0.50000000    -0.12040000
opls_145-40    C    0.13791000    0.54330982    0.50000000    -0.04820000
opls_166-41    C    0.24448996    0.60869000    0.50000000    0.19330000
opls_145-42    C    0.27395997    0.60787005    0.50000000    -0.27650000
opls_147-43    C    0.30464003    0.63777991    0.50000000    0.00160000
opls_145-44    C    0.47411990    0.57731993    0.50000000    -0.12000000
opls_145-45    C    0.45669007    0.59459994    0.50000000    -0.04820000
opls_166-46    C    0.39130992    0.63579982    0.50000000    0.19330000
opls_145-47    C    0.39213004    0.66609000    0.50000000    -0.27650000
opls_147-48    C    0.36221999    0.66685998    0.50000000    0.00160000
opls_145-49    C    0.42267995    0.89679993    0.50000000    -0.12000000
opls_145-50    C    0.40540002    0.86208999    0.50000000    -0.04820000
opls_166-51    C    0.36420000    0.75550993    0.50000000    0.19330000
opls_145-52    C    0.33391000    0.72603995    0.50000000    -0.27650000
opls_147-53    C    0.33313986    0.69535986    0.50000000    0.00160000
opls_145-54    C    0.47411997    0.89679993    0.50000000    -0.12040000
opls_145-55    C    0.45668997    0.86208999    0.50000000    -0.04210000
opls_166-56    C    0.39130993    0.75550993    0.50000000    0.19330000
opls_145-57    C    0.39212995    0.72603995    0.50000000    -0.27650000
opls_147-58    C    0.36222000    0.69535986    0.50000000    0.00160000
opls_145-59    C    0.42267987    0.52587990    0.50000000    -0.12000000
opls_145-60    C    0.40539982    0.54330982    0.50000000    -0.04820000
opls_166-61    C    0.36420004    0.60869000    0.50000000    0.19330000
opls_145-62    C    0.33391008    0.60787005    0.50000000    -0.27650000
opls_147-63    C    0.33313989    0.63777991    0.50000000    0.00160000
opls_145-64    C    0.10320003    0.57731993    0.50000000    -0.11460000
opls_145-65    C    0.13790988    0.59459994    0.50000000    -0.04820000
opls_166-66    C    0.24448991    0.63579982    0.50000000    0.19330000
opls_145-67    C    0.27395996    0.66609000    0.50000000    -0.27650000
opls_147-68    C    0.30463999    0.66685998    0.50000000    0.00160000
opls_145-69    C    0.52588003    0.10320007    0.50000000    -0.12040000
opls_145-70    C    0.54331003    0.13791001    0.50000000    -0.04820000
opls_166-71    C    0.60869007    0.24449007    0.50000000    0.19330000
opls_145-72    C    0.60787005    0.27396005    0.50000000    -0.27650000
opls_147-73    C    0.63777988    0.30463990    0.50000000    0.00160000
opls_145-74    C    0.57732001    0.47411986    0.50000000    -0.12000000
opls_145-75    C    0.59460006    0.45668993    0.50000000    -0.04820000
opls_166-76    C    0.63579996    0.39131000    0.50000000    0.19330000
opls_145-77    C    0.66608992    0.39212995    0.50000000    -0.27650000
opls_147-78    C    0.66685999    0.36221984    0.50000000    0.00160000
opls_145-79    C    0.89679997    0.42268007    0.50000000    -0.12000000
opls_145-80    C    0.86209012    0.40540006    0.50000000    -0.04820000
opls_166-81    C    0.75550997    0.36419993    0.50000000    0.19330000
opls_145-82    C    0.72604004    0.33391000    0.50000000    -0.27650000
opls_147-83    C    0.69536001    0.33314002    0.50000000    0.00160000
MOF2_B_2-84    B    0.80494007    0.40247004    0.50000000    0.62200000
MOF2_B_2-85    B    0.59752998    0.40247004    0.50000000    0.62200000
MOF2_B_2-86    B    0.59752996    0.19505991    0.50000000    0.62200000
MOF2_B_2-87    B    0.19505993    0.59752996    0.50000000    0.62190000
MOF2_B_2-88    B    0.40247002    0.59752996    0.50000000    0.62200000
MOF2_B_2-89    B    0.40246992    0.80493984    0.50000000    0.62200000
opls_167-90    O    0.78501005    0.36602002    0.50000000    -0.32230000
opls_167-91    O    0.63398003    0.41898992    0.50000000    -0.32230000
opls_167-92    O    0.58101013    0.21499006    0.50000000    -0.32230000
opls_167-93    O    0.21498995    0.63397998    0.50000000    -0.32230000
opls_167-94    O    0.36601985    0.58100983    0.50000000    -0.32230000
opls_167-95    O    0.41898987    0.78500994    0.50000000    -0.32230000
opls_167-96    O    0.36602007    0.78500994    0.50000000    -0.32240000
opls_167-97    O    0.41899003    0.63397998    0.50000000    -0.32230000
opls_167-98    O    0.21498998    0.58100983    0.50000000    -0.32230000
opls_167-99    O    0.63397993    0.21499006    0.50000000    -0.32230000
opls_167-100    O    0.58100997    0.36602002    0.50000000    -0.32230000
opls_167-101    O    0.78500989    0.41898992    0.50000000    -0.32230000
opls_146-102    H    0.90983002    0.50076986    0.50000000    0.12610000
opls_146-103    H    0.84903998    0.47033986    0.50000000    0.12620000
opls_146-104    H    0.72963994    0.41656995    0.50000000    0.11660000
opls_146-105    H    0.49922991    0.40905993    0.50000000    0.12610000
opls_146-106    H    0.52966008    0.37868999    0.50000000    0.12460000
opls_146-107    H    0.58343008    0.31307005    0.50000000    0.11660000
opls_146-108    H    0.59094996    0.09016997    0.50000000    0.12310000
opls_146-109    H    0.62130984    0.15096990    0.50000000    0.12460000
opls_146-110    H    0.68692998    0.27036000    0.50000000    0.11660000
opls_146-111    H    0.09016985    0.49922990    0.50000000    0.12610000
opls_146-112    H    0.15096992    0.52965989    0.50000000    0.12460000
opls_146-113    H    0.27036006    0.58343005    0.50000000    0.11660000
opls_146-114    H    0.50076989    0.59094992    0.50000000    0.12610000
opls_146-115    H    0.47033992    0.62131001    0.50000000    0.12460000
opls_146-116    H    0.41656992    0.68692995    0.50000000    0.11660000
opls_146-117    H    0.40905994    0.90982978    0.50000000    0.12610000
opls_146-118    H    0.37868996    0.84903995    0.50000000    0.12460000
opls_146-119    H    0.31307002    0.72964000    0.50000000    0.11660000
opls_146-120    H    0.50076985    0.90982978    0.50000000    0.12610000
opls_146-121    H    0.47033997    0.84903995    0.50000000    0.12280000
opls_146-122    H    0.41656999    0.72964000    0.50000000    0.11660000
opls_146-123    H    0.40906004    0.49922990    0.50000000    0.12610000
opls_146-124    H    0.37868997    0.52965989    0.50000000    0.12460000
opls_146-125    H    0.31306999    0.58343005    0.50000000    0.11660000
opls_146-126    H    0.09017001    0.59094992    0.50000000    0.12310000
opls_146-127    H    0.15097008    0.62131001    0.50000000    0.12460000
opls_146-128    H    0.27036002    0.68692995    0.50000000    0.11660000
opls_146-129    H    0.49923003    0.09016997    0.50000000    0.12610000
opls_146-130    H    0.52966005    0.15096990    0.50000000    0.12460000
opls_146-131    H    0.58343001    0.27036000    0.50000000    0.11660000
opls_146-132    H    0.59094985    0.50076986    0.50000000    0.12610000
opls_146-133    H    0.62130990    0.47033986    0.50000000    0.12460000
opls_146-134    H    0.68693001    0.41656995    0.50000000    0.11660000
opls_146-135    H    0.90983001    0.40905993    0.50000000    0.12610000
opls_146-136    H    0.84903994    0.37868999    0.50000000    0.12460000
opls_146-137    H    0.72963998    0.31307005    0.50000000    0.11660000
