#======================================================================
# Crystal Data Generated By AuToFF
#----------------------------------------------------------------------

data_AuToFF_phase_1

_cell_length_a                         39.6300
_cell_length_b                         39.6300
_cell_length_c                         4.4350
_cell_angle_alpha                      90.00
_cell_angle_beta                       90.00
_cell_angle_gamma                      120.00
_symmetry_space_group_name_H-M_alt     'P 1'
_symmetry_space_group_IT_number        1

loop_
_space_group_symop_operation_xyz
   'x, y, z'

loop_
   _atom_site_label
   _atom_site_type_symbol
   _atom_site_fract_x
   _atom_site_fract_y
   _atom_site_fract_z
   _atom_site_charge
opls_182-0    C    0.58760997    0.59563982    0.69091094    0.01670000
opls_137-1    C    0.60719994    0.63991994    0.63850056    0.00610000
opls_136-2    C    0.57956989    0.65030001    0.46751071    -0.14610000
opls_135-3    C    0.64635008    0.65413998    0.47733935    -0.42360000
opls_135-4    C    0.59701998    0.69397991    0.41222097    -0.40660000
opls_166-5    C    0.52594987    0.54072992    0.85105975    0.21470000
opls_145-6    C    0.54010997    0.51445007    0.86027057    -0.25890000
opls_234-7    C    0.53062992    0.44748998    0.88632920    0.43450000
opls_700-8    C    0.51453993    0.47404983    0.86669899    -0.26040000
opls_142-9    C    0.60373001    0.43638003    0.28144081    0.01240000
opls_916-10    C    0.65002982    0.35872985    0.32353100    0.16310000
opls_145-11    C    0.60087991    0.37362003    0.14156032    -0.12340000
opls_145-12    C    0.61617007    0.34866009    0.15599098    -0.17700000
opls_145-13    C    0.66780015    0.39433005    0.48048929    -0.17530000
opls_145-14    C    0.65233008    0.41919005    0.46905073    -0.12210000
opls_700-15    C    0.61895987    0.40922985    0.29740924    0.05400000
opls_182-16    C    0.40435989    0.99196984    0.69091094    0.01670000
opls_137-17    C    0.36008007    0.96727999    0.63850056    0.00610000
opls_136-18    C    0.34970003    0.92926986    0.46751071    -0.14610000
opls_135-19    C    0.34585995    0.99220992    0.47733935    -0.42350000
opls_135-20    C    0.30602004    0.90303984    0.41222097    -0.40680000
opls_166-21    C    0.45927008    0.98521995    0.85105975    0.21470000
opls_145-22    C    0.48554996    0.02566011    0.86027057    -0.25890000
opls_234-23    C    0.55250989    0.08313989    0.88632920    0.43460000
opls_700-24    C    0.52595001    0.04048998    0.86669899    -0.26040000
opls_142-25    C    0.56361998    0.16734998    0.28144081    0.01240000
opls_916-26    C    0.64127002    0.29130006    0.32353100    0.16440000
opls_145-27    C    0.62637998    0.22726008    0.14156032    -0.12340000
opls_145-28    C    0.65133990    0.26750997    0.15599098    -0.17690000
opls_145-29    C    0.60566987    0.27346995    0.48048929    -0.17540000
opls_145-30    C    0.58080994    0.23313993    0.46905073    -0.12210000
opls_700-31    C    0.59077016    0.20973008    0.29740924    0.05400000
opls_182-32    C    0.00803000    0.41239006    0.69091094    0.01670000
opls_137-33    C    0.03271999    0.39280007    0.63850056    0.00610000
opls_136-34    C    0.07072993    0.42042984    0.46751071    -0.14610000
opls_135-35    C    0.00778997    0.35365010    0.47733935    -0.42360000
opls_135-36    C    0.09696008    0.40297996    0.41222097    -0.40680000
opls_166-37    C    0.01477990    0.47404983    0.85105975    0.21470000
opls_145-38    C    0.97433981    0.45988982    0.86027057    -0.25890000
opls_234-39    C    0.91686004    0.46936984    0.88632920    0.43450000
opls_700-40    C    0.95950991    0.48545989    0.86669899    -0.26040000
opls_142-41    C    0.83265001    0.39626999    0.28144081    0.01240000
opls_916-42    C    0.70870016    0.34997009    0.32353100    0.16440000
opls_145-43    C    0.77273986    0.39911989    0.14156032    -0.12340000
opls_145-44    C    0.73249004    0.38382994    0.15599098    -0.17700000
opls_145-45    C    0.72652998    0.33220000    0.48048929    -0.17540000
opls_145-46    C    0.76685999    0.34767001    0.46905073    -0.12210000
opls_700-47    C    0.79026997    0.38104007    0.29740924    0.05400000
opls_182-48    C    0.41238989    0.40435989    0.69091094    0.01670000
opls_137-49    C    0.39280006    0.36008006    0.63850056    0.00610000
opls_136-50    C    0.42043011    0.34969999    0.46751071    -0.14610000
opls_135-51    C    0.35364992    0.34586002    0.47733935    -0.42360000
opls_135-52    C    0.40298002    0.30602009    0.41222097    -0.40680000
opls_166-53    C    0.47405013    0.45927008    0.85105975    0.21470000
opls_145-54    C    0.45989003    0.48554993    0.86027057    -0.25880000
opls_234-55    C    0.46937008    0.55251002    0.88632920    0.43450000
opls_700-56    C    0.48545992    0.52594987    0.86669899    -0.26040000
opls_142-57    C    0.39626999    0.56361997    0.28144081    0.01240000
opls_916-58    C    0.34997003    0.64126986    0.32353100    0.16310000
opls_145-59    C    0.39912009    0.62637997    0.14156032    -0.12340000
opls_145-60    C    0.38382993    0.65133991    0.15599098    -0.17700000
opls_145-61    C    0.33219985    0.60566995    0.48048929    -0.17540000
opls_145-62    C    0.34766992    0.58080995    0.46905073    -0.12210000
opls_700-63    C    0.38103999    0.59076986    0.29740924    0.05400000
opls_182-64    C    0.59563997    0.00802987    0.69091094    0.01670000
opls_137-65    C    0.63991993    0.03272001    0.63850056    0.00610000
opls_136-66    C    0.65029997    0.07073014    0.46751071    -0.14610000
opls_135-67    C    0.65414005    0.00779008    0.47733935    -0.42360000
opls_135-68    C    0.69397981    0.09695987    0.41222097    -0.40680000
opls_166-69    C    0.54072992    0.01478005    0.85105975    0.21470000
opls_145-70    C    0.51445004    0.97433989    0.86027057    -0.25890000
opls_234-71    C    0.44748997    0.91685982    0.88632920    0.43450000
opls_700-72    C    0.47404999    0.95951002    0.86669899    -0.26030000
opls_142-73    C    0.43638002    0.83265002    0.28144081    0.01240000
opls_916-74    C    0.35872998    0.70869994    0.32353100    0.16440000
opls_145-75    C    0.37362002    0.77273992    0.14156032    -0.12340000
opls_145-76    C    0.34866010    0.73249003    0.15599098    -0.17700000
opls_145-77    C    0.39433013    0.72653005    0.48048929    -0.17540000
opls_145-78    C    0.41919006    0.76686007    0.46905073    -0.12210000
opls_700-79    C    0.40922984    0.79026992    0.29740924    0.05410000
opls_182-80    C    0.99197000    0.58760994    0.69091094    0.01670000
opls_137-81    C    0.96728001    0.60719993    0.63850056    0.00610000
opls_136-82    C    0.92926992    0.57956987    0.46751071    -0.14610000
opls_135-83    C    0.99221003    0.64634990    0.47733935    -0.42360000
opls_135-84    C    0.90303992    0.59702004    0.41222097    -0.40680000
opls_166-85    C    0.98521995    0.52594987    0.85105975    0.21480000
opls_145-86    C    0.02566004    0.54010989    0.86027057    -0.25890000
opls_234-87    C    0.08313981    0.53062986    0.88632920    0.43460000
opls_700-88    C    0.04048994    0.51453981    0.86669899    -0.26020000
opls_142-89    C    0.16734999    0.60373001    0.28144081    0.01240000
opls_916-90    C    0.29129984    0.65002991    0.32353100    0.16440000
opls_145-91    C    0.22726000    0.60087982    0.14156032    -0.12340000
opls_145-92    C    0.26750996    0.61617006    0.15599098    -0.17700000
opls_145-93    C    0.27347002    0.66780000    0.48048929    -0.17530000
opls_145-94    C    0.23314001    0.65232999    0.46905073    -0.12210000
opls_700-95    C    0.20973003    0.61895993    0.29740924    0.05400000
opls_146-96    H    0.69398008    0.40319004    0.60880947    0.12330000
opls_146-97    H    0.66675005    0.44645998    0.59188050    0.11010000
opls_185-98    H    0.60723984    0.58979988    0.83280947    0.05640000
opls_185-99    H    0.58313995    0.58075983    0.46919053    0.05610000
opls_140-100    H    0.61367996    0.65470990    0.86000902    0.11300000
opls_140-101    H    0.55285994    0.64069994    0.60455017    0.10670000
opls_140-102    H    0.57032990    0.63445996    0.25048027    0.10360000
opls_140-103    H    0.64202992    0.64019004    0.25328072    0.16560000
opls_140-104    H    0.66516979    0.64657979    0.61354002    0.16480000
opls_140-105    H    0.66231994    0.68626996    0.45100113    0.16480000
opls_140-106    H    0.62053004    0.70457006    0.24089064    0.16520000
opls_140-107    H    0.60869003    0.71048983    0.62542954    0.16480000
opls_140-108    H    0.57401008    0.69961997    0.32538895    0.16480000
opls_146-109    H    0.57109983    0.52513987    0.86234047    0.11190000
opls_910-110    H    0.57194988    0.48006984    0.21735964    0.25600000
opls_144-111    H    0.61681995    0.46236006    0.42062909    0.10850000
opls_146-112    H    0.57498003    0.36504005    0.00770011    0.11220000
opls_146-113    H    0.60155000    0.32149010    0.03501015    0.09670000
opls_146-114    H    0.59681003    0.29078987    0.60880947    0.12330000
opls_146-115    H    0.55353986    0.22028992    0.59188050    0.11010000
opls_185-116    H    0.41019992    0.01743997    0.83280947    0.05650000
opls_185-117    H    0.41923992    0.00237991    0.46919053    0.05610000
opls_140-118    H    0.34528986    0.95896982    0.86000902    0.11300000
opls_140-119    H    0.35930004    0.91216002    0.60455017    0.10670000
opls_140-120    H    0.36554009    0.93586998    0.25048027    0.10360000
opls_140-121    H    0.35980998    0.00184000    0.25328072    0.16560000
opls_140-122    H    0.35341991    0.01859001    0.61354002    0.16490000
opls_140-123    H    0.31372999    0.97604995    0.45100113    0.16490000
opls_140-124    H    0.29542980    0.91595978    0.24089064    0.16520000
opls_140-125    H    0.28950999    0.89819989    0.62542954    0.16480000
opls_140-126    H    0.30037995    0.87438998    0.32538895    0.16480000
opls_146-127    H    0.47485983    0.04595987    0.86234047    0.11190000
opls_910-128    H    0.51992997    0.09188012    0.21735964    0.25620000
opls_144-129    H    0.53764007    0.15446005    0.42062909    0.10850000
opls_146-130    H    0.63495984    0.20993986    0.00770011    0.11220000
opls_146-131    H    0.67850987    0.28005987    0.03501015    0.09670000
opls_146-132    H    0.70921015    0.30602009    0.60880947    0.12320000
opls_146-133    H    0.77971009    0.33325010    0.59188050    0.11010000
opls_185-134    H    0.98255984    0.39275986    0.83280947    0.05640000
opls_185-135    H    0.99761999    0.41685997    0.46919053    0.05610000
opls_140-136    H    0.04103004    0.38631999    0.86000902    0.11300000
opls_140-137    H    0.08784002    0.44714004    0.60455017    0.10250000
opls_140-138    H    0.06413001    0.42967006    0.25048027    0.10360000
opls_140-139    H    0.99816010    0.35796995    0.25328072    0.16570000
opls_140-140    H    0.98140991    0.33482991    0.61354002    0.16480000
opls_140-141    H    0.02395006    0.33768009    0.45100113    0.16480000
opls_140-142    H    0.08404001    0.37946988    0.24089064    0.16530000
opls_140-143    H    0.10180009    0.39131000    0.62542954    0.16500000
opls_140-144    H    0.12560997    0.42599005    0.32538895    0.16480000
opls_146-145    H    0.95403994    0.42889997    0.86234047    0.11190000
opls_910-146    H    0.90811990    0.42805004    0.21735964    0.25600000
opls_144-147    H    0.84553998    0.38317989    0.42062909    0.10850000
opls_146-148    H    0.79006013    0.42502008    0.00770011    0.11220000
opls_146-149    H    0.71994013    0.39845003    0.03501015    0.09680000
opls_146-150    H    0.30601992    0.59680996    0.60880947    0.12320000
opls_146-151    H    0.33324995    0.55354002    0.59188050    0.11020000
opls_185-152    H    0.39276002    0.41019982    0.83280947    0.05640000
opls_185-153    H    0.41685991    0.41923988    0.46919053    0.05610000
opls_140-154    H    0.38632004    0.34529010    0.86000902    0.11300000
opls_140-155    H    0.44714006    0.35930006    0.60455017    0.10670000
opls_140-156    H    0.42967010    0.36554004    0.25048027    0.10360000
opls_140-157    H    0.35797008    0.35980996    0.25328072    0.16560000
opls_140-158    H    0.33483007    0.35341991    0.61354002    0.16480000
opls_140-159    H    0.33768006    0.31373004    0.45100113    0.16480000
opls_140-160    H    0.37946996    0.29542994    0.24089064    0.16520000
opls_140-161    H    0.39130982    0.28950988    0.62542954    0.16480000
opls_140-162    H    0.42598992    0.30038003    0.32538895    0.16490000
opls_146-163    H    0.42890002    0.47485984    0.86234047    0.11190000
opls_910-164    H    0.42804997    0.51992987    0.21735964    0.25600000
opls_144-165    H    0.38318005    0.53763994    0.42062909    0.10850000
opls_146-166    H    0.42501997    0.63495995    0.00770011    0.11220000
opls_146-167    H    0.39845000    0.67850990    0.03501015    0.09670000
opls_146-168    H    0.40318983    0.70920984    0.60880947    0.12320000
opls_146-169    H    0.44645999    0.77970979    0.59188050    0.11010000
opls_185-170    H    0.58980008    0.98256003    0.83280947    0.05640000
opls_185-171    H    0.58076008    0.99762009    0.46919053    0.05610000
opls_140-172    H    0.65471000    0.04102989    0.86000902    0.11300000
opls_140-173    H    0.64069996    0.08783998    0.60455017    0.10680000
opls_140-174    H    0.63445991    0.06413002    0.25048027    0.10360000
opls_140-175    H    0.64019002    0.99816000    0.25328072    0.16560000
opls_140-176    H    0.64658009    0.98140999    0.61354002    0.16480000
opls_140-177    H    0.68627001    0.02395005    0.45100113    0.16480000
opls_140-178    H    0.70457005    0.08403993    0.24089064    0.16520000
opls_140-179    H    0.71049001    0.10180011    0.62542954    0.16480000
opls_140-180    H    0.69962005    0.12561002    0.32538895    0.16480000
opls_146-181    H    0.52514003    0.95403983    0.86234047    0.11190000
opls_910-182    H    0.48007003    0.90811988    0.21735964    0.25600000
opls_144-183    H    0.46235993    0.84553995    0.42062909    0.10850000
opls_146-184    H    0.36504002    0.79005984    0.00770011    0.11220000
opls_146-185    H    0.32148998    0.71993984    0.03501015    0.09670000
opls_146-186    H    0.29078985    0.69397991    0.60880947    0.12320000
opls_146-187    H    0.22028991    0.66674990    0.59188050    0.11010000
opls_185-188    H    0.01744001    0.60723985    0.83280947    0.05640000
opls_185-189    H    0.00238001    0.58314003    0.46919053    0.05610000
opls_140-190    H    0.95896996    0.61368001    0.86000902    0.11300000
opls_140-191    H    0.91215998    0.55285996    0.60455017    0.10680000
opls_140-192    H    0.93586999    0.57032994    0.25048027    0.10370000
opls_140-193    H    0.00183990    0.64203005    0.25328072    0.16570000
opls_140-194    H    0.01858995    0.66516980    0.61354002    0.16480000
opls_140-195    H    0.97604994    0.66231991    0.45100113    0.16490000
opls_140-196    H    0.91595984    0.62052983    0.24089064    0.16510000
opls_140-197    H    0.89819991    0.60869000    0.62542954    0.16490000
opls_140-198    H    0.87439003    0.57400995    0.32538895    0.16480000
opls_146-199    H    0.04596006    0.57110003    0.86234047    0.11700000
opls_910-200    H    0.09188010    0.57194996    0.21735964    0.25600000
opls_144-201    H    0.15445987    0.61681982    0.42062909    0.10850000
opls_146-202    H    0.20993987    0.57497992    0.00770011    0.11220000
opls_146-203    H    0.28005987    0.60154997    0.03501015    0.09670000
opls_236-204    O    0.51673997    0.41811985    0.73160992    -0.40820000
opls_179-205    O    0.55095003    0.58145999    0.84027959    -0.21640000
opls_236-206    O    0.58188007    0.09862010    0.73160992    -0.40830000
opls_179-207    O    0.41854012    0.96949003    0.84027959    -0.21640000
opls_236-208    O    0.90137996    0.48326005    0.73160992    -0.40830000
opls_179-209    O    0.03051010    0.44904997    0.84027959    -0.21630000
opls_236-210    O    0.48325989    0.58187986    0.73160992    -0.40830000
opls_179-211    O    0.44904997    0.41854001    0.84027959    -0.21640000
opls_236-212    O    0.41811993    0.90137990    0.73160992    -0.40820000
opls_179-213    O    0.58145988    0.03050997    0.84027959    -0.21640000
opls_236-214    O    0.09862004    0.51673995    0.73160992    -0.40830000
opls_179-215    O    0.96948990    0.55095003    0.84027959    -0.21640000
opls_238-216    N    0.56069998    0.45544992    0.07857046    -0.28620000
opls_750-217    N    0.57546983    0.42987985    0.09981060    -0.19040000
opls_238-218    N    0.54455003    0.10524994    0.07857046    -0.28630000
opls_750-219    N    0.57011994    0.14558986    0.09981060    -0.19040000
opls_238-220    N    0.89474985    0.43929985    0.07857046    -0.28610000
opls_750-221    N    0.85441009    0.42453000    0.09981060    -0.19040000
opls_238-222    N    0.43930002    0.54455008    0.07857046    -0.28630000
opls_750-223    N    0.42453003    0.57011986    0.09981060    -0.19030000
opls_238-224    N    0.45544997    0.89475006    0.07857046    -0.28630000
opls_750-225    N    0.42987992    0.85440985    0.09981060    -0.19030000
opls_238-226    N    0.10525001    0.56069986    0.07857046    -0.28630000
opls_750-227    N    0.14558991    0.57547000    0.09981060    -0.19040000
opls_239-228    N    0.66667001    0.33332993    0.32947012    -0.15750000
opls_239-229    N    0.33332999    0.66667007    0.32947012    -0.15750000
