#======================================================================
# Crystal Data Generated By AuToFF
#----------------------------------------------------------------------

data_AuToFF_phase_1

_cell_length_a                         4.2271
_cell_length_b                         26.9780
_cell_length_c                         27.2511
_cell_angle_alpha                      60.33
_cell_angle_beta                       89.70
_cell_angle_gamma                      89.39
_symmetry_space_group_name_H-M_alt     'P 1'
_symmetry_space_group_IT_number        1

loop_
_space_group_symop_operation_xyz
   'x, y, z'

loop_
   _atom_site_label
   _atom_site_type_symbol
   _atom_site_fract_x
   _atom_site_fract_y
   _atom_site_fract_z
   _atom_site_charge
opls_531-0    C    0.47456878    0.23484998    0.61883010    0.29990000
opls_531-1    C    0.47950936    0.14639005    0.61927988    0.29980000
opls_531-2    C    0.47591979    0.23386996    0.53185996    0.29860000
opls_700-3    C    0.47036988    0.26524990    0.64881979    0.00760000
opls_700-4    C    0.48933973    0.08602020    0.64968978    0.00710000
opls_700-5    C    0.47634989    0.26359993    0.47198996    0.00360000
opls_523-6    C    0.57030834    0.32271006    0.62322988    -0.19310000
opls_523-7    C    0.39616888    0.05337023    0.62455978    -0.19380000
opls_523-8    C    0.40495027    0.23573997    0.44090011    -0.19260000
opls_523-9    C    0.54877844    0.32247989    0.44068979    -0.19310000
opls_523-10    C    0.59618941    0.05594002    0.70641980    -0.19380000
opls_523-11    C    0.36606034    0.23928973    0.70566004    -0.19380000
opls_145-12    C    0.36307957    0.26932991    0.73567971    -0.19350000
opls_145-13    C    0.61205828    0.99593967    0.73653999    -0.19350000
opls_145-14    C    0.54951974    0.35209009    0.38122987    -0.19350000
opls_145-15    C    0.40473892    0.26532015    0.38140978    -0.19350000
opls_145-16    C    0.41049906    0.99331987    0.65473994    -0.19390000
opls_145-17    C    0.56894843    0.35271992    0.65329981    -0.19350000
opls_916-18    C    0.51191791    0.50885005    0.89355985    0.14580000
opls_916-19    C    0.54904832    0.59756008    0.89289975    0.14610000
opls_145-20    C    0.32039940    0.45994991    0.91146979    -0.19610000
opls_145-21    C    0.73789998    0.62907010    0.91055968    -0.19610000
opls_145-22    C    0.31091832    0.42880000    0.88253971    -0.19370000
opls_145-23    C    0.74243890    0.68920006    0.88166972    -0.19370000
opls_700-24    C    0.48072832    0.44750994    0.83180966    0.08020000
opls_700-25    C    0.56879865    0.72075976    0.83129991    0.08260000
opls_145-26    C    0.66281870    0.49726973    0.81157989    -0.21770000
opls_145-27    C    0.39460851    0.69063986    0.81075002    -0.21770000
opls_145-28    C    0.68152857    0.52617978    0.84254979    -0.22480000
opls_145-29    C    0.38063906    0.63072987    0.84165996    -0.22480000
opls_145-30    C    0.62929958    0.45172002    0.01572990    -0.19590000
opls_145-31    C    0.41764874    0.53445975    0.01438015    -0.19610000
opls_145-32    C    0.60699947    0.42129969    0.07515013    -0.19260000
opls_145-33    C    0.42049913    0.50573992    0.07384979    -0.19350000
opls_700-34    C    0.47254982    0.41732992    0.80193991    0.04290000
opls_700-35    C    0.56460790    0.78085994    0.80212995    0.04280000
opls_716-36    C    0.61201811    0.36260978    0.82429988    0.08420000
opls_145-37    C    0.42162919    0.81136995    0.82637983    -0.19260000
opls_716-38    C    0.61157982    0.33319002    0.79423966    0.08350000
opls_145-39    C    0.40663926    0.87153983    0.79636987    -0.19540000
opls_700-40    C    0.46774921    0.35642977    0.74043002    -0.00800000
opls_700-41    C    0.53761913    0.90329972    0.74143008    -0.00830000
opls_145-42    C    0.32665937    0.41134988    0.71783988    -0.19540000
opls_716-43    C    0.68637994    0.87213985    0.71839988    0.08340000
opls_145-44    C    0.33070972    0.44147009    0.74789967    -0.19260000
opls_716-45    C    0.69743829    0.81266967    0.74769991    0.08620000
opls_716-46    C    0.30599846    0.43487991    0.20018988    0.08200000
opls_145-47    C    0.66211891    0.36480011    0.20042976    -0.17500000
opls_716-48    C    0.30403992    0.40521992    0.25930012    0.08340000
opls_145-49    C    0.65327063    0.33390007    0.25995979    -0.19390000
opls_916-50    C    0.52604989    0.50921986    0.98231980    0.14520000
opls_700-51    C    0.50348050    0.44716997    0.10700987    0.05810000
opls_700-52    C    0.48803053    0.41657018    0.16764977    0.00050000
opls_700-53    C    0.47617059    0.35391002    0.29084987    0.04370000
opls_700-54    C    0.46617908    0.32647016    0.71008980    0.08270000
opls_700-55    C    0.52005837    0.96357975    0.71117982    0.08270000
opls_700-56    C    0.47639994    0.32404976    0.35058008    0.08200000
opls_520-57    N    0.47646921    0.26208011    0.56155993    -0.50640000
opls_520-58    N    0.47604063    0.17597992    0.56198986    -0.50660000
opls_520-59    N    0.47714946    0.17702986    0.64646998    -0.52600000
opls_239-60    N    0.53018980    0.53834012    0.92330966    -0.01930000
opls_750-61    N    0.11365901    0.48060989    0.18170980    -0.40450000
opls_750-62    N    0.12121012    0.43065997    0.28092989    -0.40150000
opls_750-63    N    0.76295033    0.33319987    0.87383982    -0.40430000
opls_750-64    N    0.76555879    0.28307978    0.82240998    -0.40450000
opls_750-65    N    0.83424813    0.89345971    0.66843001    -0.40440000
opls_750-66    N    0.84843870    0.79196982    0.71822968    -0.40450000
opls_146-67    H    0.18454941    0.44629988    0.94663971    0.21090000
opls_146-68    H    0.87385896    0.60780969    0.94570004    0.21100000
opls_146-69    H    0.17669935    0.39270996    0.89838997    0.21080000
opls_146-70    H    0.87571940    0.70970997    0.89730967    0.21070000
opls_146-71    H    0.78725904    0.51234019    0.77467970    0.21070000
opls_146-72    H    0.27274877    0.71212974    0.77349001    0.21070000
opls_146-73    H    0.82295904    0.56086011    0.82705977    0.21140000
opls_146-74    H    0.24315970    0.61120975    0.82597989    0.21100000
opls_146-75    H    0.71983971    0.43026005    0.99683003    0.21100000
opls_146-76    H    0.33689049    0.57544996    0.99457017    0.21090000
opls_146-77    H    0.66851990    0.37916997    0.09438997    0.21080000
opls_146-78    H    0.36192925    0.52964998    0.09207985    0.21080000
opls_146-79    H    0.32380928    0.78987988    0.86591997    0.21070000
opls_146-80    H    0.29581892    0.89211986    0.81484995    0.21070000
opls_146-81    H    0.21779981    0.42980985    0.67917986    0.21070000
opls_146-82    H    0.22829812    0.48119997    0.73012995    0.21080000
opls_146-83    H    0.80750978    0.34855987    0.18173007    0.21070000
opls_146-84    H    0.78422051    0.29702018    0.28082980    0.21070000
opls_526-85    H    0.64832826    0.34318979    0.58228002    0.21070000
opls_526-86    H    0.31515942    0.07316973    0.58381010    0.21070000
opls_526-87    H    0.35010880    0.19328988    0.46149984    0.21070000
opls_526-88    H    0.60390863    0.34455006    0.46105977    0.21070000
opls_526-89    H    0.66722980    0.07767002    0.72632987    0.21070000
opls_526-90    H    0.28890015    0.19801013    0.72581970    0.21070000
opls_146-91    H    0.64693991    0.39394005    0.63344000    0.21070000
opls_146-92    H    0.33888962    0.97129999    0.63509973    0.21080000
opls_146-93    H    0.28362965    0.24911996    0.77660972    0.21070000
opls_146-94    H    0.69471910    0.97601973    0.77717986    0.21070000
opls_146-95    H    0.34934029    0.24362006    0.36067998    0.21070000
opls_146-96    H    0.60582873    0.39454995    0.36023991    0.21070000
opls_202-97    S    0.94857951    0.49147993    0.23197994    0.37650000
opls_202-98    S    0.90926867    0.26998989    0.88533001    0.37650000
opls_202-99    S    0.98509946    0.84307996    0.65535991    0.37640000
