#======================================================================
# Crystal Data Generated By AuToFF
#----------------------------------------------------------------------

data_AuToFF_phase_1

_cell_length_a                         10.9383
_cell_length_b                         10.9888
_cell_length_c                         20.0000
_cell_angle_alpha                      90.00
_cell_angle_beta                       90.00
_cell_angle_gamma                      118.21
_symmetry_space_group_name_H-M_alt     'P 1'
_symmetry_space_group_IT_number        1

loop_
_space_group_symop_operation_xyz
   'x, y, z'

loop_
   _atom_site_label
   _atom_site_type_symbol
   _atom_site_fract_x
   _atom_site_fract_y
   _atom_site_fract_z
   _atom_site_charge
opls_530-0    N    0.03184006    0.98893014    0.21929000    -0.29100000
opls_750-1    N    0.28413057    0.04209026    0.21923000    -0.33160000
opls_750-2    N    0.80835015    0.95284052    0.21906000    -0.28020000
opls_530-3    N    0.23953983    0.22737003    0.21918000    -0.33330000
opls_750-4    N    0.19247056    0.42001043    0.21909000    -0.27660000
opls_531-5    C    0.18455035    0.08923012    0.21925000    0.37900000
opls_532-6    C    0.96512964    0.06301974    0.21916000    0.41520000
opls_700-7    C    0.32540051    0.84972041    0.21973000    0.06210000
opls_145-8    C    0.46921025    0.94024959    0.21987000    -0.04920000
opls_700-9    C    0.56458019    0.88921979    0.21990000    0.06100000
opls_145-10    C    0.51622985    0.74524032    0.21986000    -0.14500000
opls_700-11    C    0.37363051    0.65417004    0.21975000    0.06080000
opls_145-12    C    0.27874994    0.70743963    0.21971000    -0.14720000
opls_142-13    C    0.22542009    0.90297967    0.21968000    0.01570000
opls_142-14    C    0.71213018    0.98897970    0.22008000    0.09520000
opls_142-15    C    0.32384032    0.50489005    0.21974000    0.08020000
opls_532-16    C    0.14791996    0.27709044    0.21910000    0.45280000
opls_533-17    C    0.00470017    0.19027979    0.21897000    -0.27310000
opls_146-18    H    0.52061069    0.05912050    0.21991000    0.04520000
opls_146-19    H    0.59186026    0.70677048    0.21995000    0.12250000
opls_146-20    H    0.16794020    0.63459022    0.21967000    0.12230000
opls_144-21    H    0.74974977    0.10565007    0.22115000    0.03160000
opls_144-22    H    0.40211994    0.46848961    0.22031000    0.06750000
opls_144-23    H    0.11408009    0.82713046    0.22005000    0.07120000
opls_536-24    H    0.94409023    0.25335013    0.21871000    0.04490000
