#======================================================================
# Crystal Data Generated By AuToFF
#----------------------------------------------------------------------

data_AuToFF_phase_1

_cell_length_a                         35.7960
_cell_length_b                         35.7960
_cell_length_c                         3.4000
_cell_angle_alpha                      90.00
_cell_angle_beta                       90.00
_cell_angle_gamma                      120.00
_symmetry_space_group_name_H-M_alt     'P 1'
_symmetry_space_group_IT_number        1

loop_
_space_group_symop_operation_xyz
   'x, y, z'

loop_
   _atom_site_label
   _atom_site_type_symbol
   _atom_site_fract_x
   _atom_site_fract_y
   _atom_site_fract_z
   _atom_site_charge
opls_145-0    C    0.55012997    0.37935984    0.00000000    -0.22090000
opls_145-1    C    0.62064001    0.17076991    0.00000000    -0.22090000
opls_145-2    C    0.82922985    0.44986992    0.00000000    -0.22080000
opls_145-3    C    0.44986987    0.62063983    0.00000000    -0.22090000
opls_145-4    C    0.37935983    0.82922976    0.00000000    -0.22090000
opls_145-5    C    0.17076999    0.55012976    0.00000000    -0.22090000
opls_700-6    C    0.57216983    0.42465980    0.00000000    0.00360000
opls_700-7    C    0.57534017    0.14750010    0.00000000    0.00360000
opls_700-8    C    0.85249990    0.42783978    0.00000000    0.00360000
opls_700-9    C    0.42784007    0.57533988    0.00000000    0.00360000
opls_700-10    C    0.42465983    0.85249990    0.00000000    0.00360000
opls_700-11    C    0.14749994    0.57215990    0.00000000    0.00360000
opls_507-12    C    0.49881983    0.46109983    0.00000000    0.09060000
opls_507-13    C    0.53889993    0.03773002    0.00000000    0.09060000
opls_507-14    C    0.96226999    0.50117983    0.00000000    0.09060000
opls_507-15    C    0.50118001    0.53889985    0.00000000    0.09070000
opls_507-16    C    0.46110007    0.96226998    0.00000000    0.09060000
opls_507-17    C    0.03772985    0.49881985    0.00000000    0.09060000
opls_145-18    C    0.45911983    0.45983984    0.00000000    -0.31000000
opls_145-19    C    0.54015989    0.99928001    0.00000000    -0.31010000
opls_145-20    C    0.00071984    0.54087983    0.00000000    -0.31010000
opls_145-21    C    0.54088001    0.54015984    0.00000000    -0.31010000
opls_145-22    C    0.45984011    0.00071999    0.00000000    -0.31010000
opls_145-23    C    0.99928000    0.45911985    0.00000000    -0.31010000
opls_575-24    C    0.46177991    0.50012984    0.00000000    0.14670000
opls_575-25    C    0.49987011    0.96165999    0.00000000    0.14670000
opls_575-26    C    0.03834001    0.53821985    0.00000000    0.14670000
opls_575-27    C    0.53821992    0.49986984    0.00000000    0.14670000
opls_575-28    C    0.50012989    0.03834001    0.00000000    0.14670000
opls_575-29    C    0.96165983    0.46177982    0.00000000    0.14670000
opls_572-30    C    0.45013995    0.55266006    0.00000000    0.37110000
opls_572-31    C    0.44734005    0.89747986    0.00000000    0.37110000
opls_572-32    C    0.10251983    0.54985976    0.00000000    0.37110000
opls_572-33    C    0.54986005    0.44733994    0.00000000    0.37110000
opls_572-34    C    0.55265995    0.10252014    0.00000000    0.37110000
opls_572-35    C    0.89747998    0.45014992    0.00000000    0.37110000
opls_145-36    C    0.38255008    0.55263006    0.00000000    -0.22090000
opls_145-37    C    0.44736990    0.82992976    0.00000000    -0.22090000
opls_145-38    C    0.17007005    0.61744986    0.00000000    -0.22090000
opls_145-39    C    0.61744992    0.44736994    0.00000000    -0.22090000
opls_145-40    C    0.55262994    0.17006992    0.00000000    -0.22090000
opls_145-41    C    0.82992979    0.38254982    0.00000000    -0.22090000
opls_145-42    C    0.35983992    0.57497988    0.00000000    -0.22130000
opls_145-43    C    0.42501985    0.78485980    0.00000000    -0.22130000
opls_145-44    C    0.21514003    0.64017000    0.00000000    -0.22130000
opls_145-45    C    0.64016997    0.42501980    0.00000000    -0.22120000
opls_145-46    C    0.57497998    0.21513988    0.00000000    -0.22130000
opls_145-47    C    0.78485997    0.35983000    0.00000000    -0.22130000
opls_145-48    C    0.57327005    0.35741002    0.00000000    -0.22090000
opls_145-49    C    0.64258995    0.21585987    0.00000000    -0.22100000
opls_145-50    C    0.78413984    0.42672978    0.00000000    -0.22090000
opls_145-51    C    0.42672995    0.64258998    0.00000000    -0.22080000
opls_145-52    C    0.35740988    0.78413981    0.00000000    -0.22100000
opls_145-53    C    0.21586000    0.57326989    0.00000000    -0.22100000
opls_700-54    C    0.61927990    0.37905985    0.00000000    0.05220000
opls_700-55    C    0.62094001    0.24021000    0.00000000    0.05220000
opls_700-56    C    0.75979002    0.38071983    0.00000000    0.05270000
opls_700-57    C    0.38071994    0.62093983    0.00000000    0.05220000
opls_700-58    C    0.37905999    0.75979000    0.00000000    0.05220000
opls_700-59    C    0.24020982    0.61927984    0.00000000    0.05270000
opls_700-60    C    0.64284990    0.35633003    0.00000000    0.06380000
opls_700-61    C    0.64367008    0.28651995    0.00000000    0.06380000
opls_700-62    C    0.71348003    0.35715002    0.00000000    0.06380000
opls_700-63    C    0.35715010    0.64366997    0.00000000    0.06380000
opls_700-64    C    0.35632992    0.71348005    0.00000000    0.06380000
opls_700-65    C    0.28651997    0.64284998    0.00000000    0.06380000
opls_145-66    C    0.68840994    0.37759986    0.00000000    -0.14690000
opls_145-67    C    0.62239995    0.31081007    0.00000000    -0.14690000
opls_145-68    C    0.68919011    0.31159007    0.00000000    -0.14680000
opls_145-69    C    0.31158990    0.62239982    0.00000000    -0.14690000
opls_145-70    C    0.37760005    0.68918993    0.00000000    -0.14690000
opls_145-71    C    0.31080989    0.68840993    0.00000000    -0.14680000
opls_146-72    H    0.51708009    0.36196998    0.00000000    0.20660000
opls_146-73    H    0.63802993    0.15511004    0.00000000    0.20650000
opls_146-74    H    0.84488998    0.48291998    0.00000000    0.20670000
opls_146-75    H    0.48291991    0.63803002    0.00000000    0.20650000
opls_146-76    H    0.36197007    0.84488996    0.00000000    0.20660000
opls_146-77    H    0.15511002    0.51708002    0.00000000    0.20650000
opls_146-78    H    0.43027991    0.43178007    0.00000000    0.20650000
opls_146-79    H    0.56821981    0.99850969    0.00000000    0.20650000
opls_146-80    H    0.00149003    0.56971992    0.00000000    0.20660000
opls_146-81    H    0.56972009    0.56821993    0.00000000    0.20650000
opls_146-82    H    0.43178003    0.00148999    0.00000000    0.20650000
opls_146-83    H    0.99850997    0.43028008    0.00000000    0.20650000
opls_146-84    H    0.36575006    0.51952000    0.00000000    0.20640000
opls_146-85    H    0.48048004    0.84622995    0.00000000    0.20650000
opls_146-86    H    0.15376990    0.63425005    0.00000000    0.20640000
opls_146-87    H    0.63424994    0.48048000    0.00000000    0.20640000
opls_146-88    H    0.51951996    0.15377005    0.00000000    0.20640000
opls_146-89    H    0.84623010    0.36574995    0.00000000    0.20640000
opls_146-90    H    0.32733002    0.55554004    0.00000000    0.20670000
opls_146-91    H    0.44445988    0.77178990    0.00000000    0.20670000
opls_146-92    H    0.22821010    0.67267006    0.00000000    0.20690000
opls_146-93    H    0.67266998    0.44445996    0.00000000    0.20700000
opls_146-94    H    0.55554012    0.22821010    0.00000000    0.20670000
opls_146-95    H    0.77178990    0.32732994    0.00000000    0.20690000
opls_146-96    H    0.55436995    0.32482996    0.00000000    0.20660000
opls_146-97    H    0.67517012    0.22953008    0.00000000    0.20660000
opls_146-98    H    0.77047002    0.44562995    0.00000000    0.20690000
opls_146-99    H    0.44563005    0.67517004    0.00000000    0.20660000
opls_146-100    H    0.32482988    0.77046992    0.00000000    0.20660000
opls_146-101    H    0.22952998    0.55437005    0.00000000    0.20690000
opls_146-102    H    0.70418983    0.40969992    0.00000000    0.20700000
opls_146-103    H    0.59030000    0.29449988    0.00000000    0.20690000
opls_146-104    H    0.70549992    0.29580987    0.00000000    0.20690000
opls_146-105    H    0.29581001    0.59029976    0.00000000    0.20690000
opls_146-106    H    0.40969984    0.70549979    0.00000000    0.20690000
opls_146-107    H    0.29449992    0.70418980    0.00000000    0.20700000
opls_573-108    N    0.50649999    0.42851009    0.00000000    -0.43020000
opls_573-109    N    0.57148998    0.07799002    0.00000000    -0.43020000
opls_573-110    N    0.92201003    0.49349989    0.00000000    -0.42850000
opls_573-111    N    0.49350001    0.57148991    0.00000000    -0.43020000
opls_573-112    N    0.42851002    0.92200998    0.00000000    -0.43010000
opls_573-113    N    0.07798981    0.50649979    0.00000000    -0.43020000
opls_180-114    O    0.42975989    0.50892977    0.00000000    -0.19730000
opls_180-115    O    0.49107007    0.92083999    0.00000000    -0.19720000
opls_180-116    O    0.07916985    0.57023992    0.00000000    -0.19720000
opls_180-117    O    0.57023995    0.49106991    0.00000000    -0.19730000
opls_180-118    O    0.50892990    0.07917001    0.00000000    -0.19720000
opls_180-119    O    0.92083993    0.42976008    0.00000000    -0.19750000
