#======================================================================
# Crystal Data Generated By AuToFF
#----------------------------------------------------------------------

data_AuToFF_phase_1

_cell_length_a                         14.7240
_cell_length_b                         14.7240
_cell_length_c                         3.3100
_cell_angle_alpha                      90.00
_cell_angle_beta                       90.00
_cell_angle_gamma                      120.00
_symmetry_space_group_name_H-M_alt     'P 1'
_symmetry_space_group_IT_number        1

loop_
_space_group_symop_operation_xyz
   'x, y, z'

loop_
   _atom_site_label
   _atom_site_type_symbol
   _atom_site_fract_x
   _atom_site_fract_y
   _atom_site_fract_z
   _atom_site_charge
opls_750-0    N    0.04811032    0.53498999    0.50000000    0.01580000
opls_750-1    N    0.46501023    0.51312017    0.50000000    0.01580000
opls_750-2    N    0.48688013    0.95188984    0.50000000    0.01580000
opls_750-3    N    0.95188968    0.46501001    0.50000000    0.01580000
opls_750-4    N    0.53498977    0.48687983    0.50000000    0.01580000
opls_750-5    N    0.51311987    0.04811016    0.50000000    0.01580000
opls_142-6    C    0.12207005    0.50809012    0.50000000    0.01290000
opls_142-7    C    0.49190986    0.61398000    0.50000000    0.01290000
opls_142-8    C    0.38602009    0.87792988    0.50000000    0.01290000
opls_142-9    C    0.87792995    0.49190988    0.50000000    0.01290000
opls_142-10    C    0.50809014    0.38602000    0.50000000    0.01290000
opls_142-11    C    0.61397991    0.12207012    0.50000000    0.01290000
opls_700-12    C    0.22674986    0.58769966    0.50000000    0.02510000
opls_700-13    C    0.41230019    0.63905027    0.50000000    0.02510000
opls_700-14    C    0.36094995    0.77325007    0.50000000    0.02510000
opls_700-15    C    0.77324975    0.41229955    0.50000000    0.02510000
opls_700-16    C    0.58769981    0.36094973    0.50000000    0.02510000
opls_700-17    C    0.63905005    0.22674993    0.50000000    0.02510000
opls_145-18    C    0.25521966    0.69448984    0.50000000    -0.20010000
opls_145-19    C    0.30550966    0.56072999    0.50000000    -0.20010000
opls_145-20    C    0.43926996    0.74478958    0.50000000    -0.20010000
opls_145-21    C    0.74478985    0.30551016    0.50000000    -0.20010000
opls_145-22    C    0.69449034    0.43927001    0.50000000    -0.20010000
opls_145-23    C    0.56072965    0.25520964    0.50000000    -0.20010000
opls_144-24    H    0.10171961    0.43055956    0.50000000    0.04790000
opls_144-25    H    0.56943958    0.67115978    0.50000000    0.04790000
opls_144-26    H    0.32883974    0.89827987    0.50000000    0.04790000
opls_144-27    H    0.89828000    0.56943965    0.50000000    0.04790000
opls_144-28    H    0.43056042    0.32884022    0.50000000    0.04790000
opls_144-29    H    0.67116026    0.10172013    0.50000000    0.04790000
opls_146-30    H    0.28465977    0.48312964    0.50000000    0.09840000
opls_146-31    H    0.51686975    0.80151999    0.50000000    0.09840000
opls_146-32    H    0.19848033    0.71534017    0.50000000    0.09840000
opls_146-33    H    0.71533984    0.51686957    0.50000000    0.09840000
opls_146-34    H    0.48313025    0.19848001    0.50000000    0.09840000
opls_146-35    H    0.80151967    0.28465983    0.50000000    0.09840000
