#======================================================================
# Crystal Data Generated By AuToFF
#----------------------------------------------------------------------

data_AuToFF_phase_1

_cell_length_a                         14.5740
_cell_length_b                         14.5740
_cell_length_c                         3.4040
_cell_angle_alpha                      90.00
_cell_angle_beta                       90.00
_cell_angle_gamma                      120.00
_symmetry_space_group_name_H-M_alt     'P 1'
_symmetry_space_group_IT_number        1

loop_
_space_group_symop_operation_xyz
   'x, y, z'

loop_
   _atom_site_label
   _atom_site_type_symbol
   _atom_site_fract_x
   _atom_site_fract_y
   _atom_site_fract_z
   _atom_site_charge
opls_531-0    C    0.61442035    0.38558010    0.50000000    0.36360000
opls_700-1    C    0.55579056    0.44421045    0.50000000    0.00190000
opls_531-2    C    0.61441990    0.22883979    0.50000000    0.36360000
opls_700-3    C    0.55578994    0.11157989    0.50000000    0.00190000
opls_531-4    C    0.77115975    0.38558010    0.50000000    0.36360000
opls_700-5    C    0.88841990    0.44421045    0.50000000    0.00190000
opls_531-6    C    0.38557965    0.61441990    0.50000000    0.36360000
opls_700-7    C    0.44420984    0.55579034    0.50000000    0.00190000
opls_531-8    C    0.38558010    0.77116021    0.50000000    0.36360000
opls_700-9    C    0.44421006    0.88842011    0.50000000    0.00190000
opls_531-10    C    0.22884025    0.61441990    0.50000000    0.36360000
opls_700-11    C    0.11158050    0.55579034    0.50000000    0.00190000
opls_523-12    C    0.61057044    0.55561049    0.50000000    -0.10960000
opls_523-13    C    0.44439045    0.05496040    0.50000000    -0.10960000
opls_523-14    C    0.94504019    0.38942990    0.50000000    -0.10960000
opls_523-15    C    0.38942995    0.44439030    0.50000000    -0.10960000
opls_523-16    C    0.55560994    0.94504039    0.50000000    -0.10960000
opls_523-17    C    0.05495981    0.61057010    0.50000000    -0.10960000
opls_523-18    C    0.55561029    0.61057010    0.50000000    -0.10960000
opls_523-19    C    0.05496035    0.44439030    0.50000000    -0.10960000
opls_523-20    C    0.38943044    0.94504039    0.50000000    -0.10960000
opls_523-21    C    0.44438971    0.38942990    0.50000000    -0.10960000
opls_523-22    C    0.94504005    0.55561049    0.50000000    -0.10960000
opls_523-23    C    0.61056995    0.05496040    0.50000000    -0.10960000
opls_526-24    H    0.59755043    0.69654041    0.50000000    0.12310000
opls_526-25    H    0.30346055    0.90101058    0.50000000    0.12310000
opls_526-26    H    0.09899010    0.40244980    0.50000000    0.12310000
opls_526-27    H    0.40244996    0.30346038    0.50000000    0.12310000
opls_526-28    H    0.69653984    0.09899021    0.50000000    0.12320000
opls_526-29    H    0.90100990    0.59755020    0.50000000    0.12310000
opls_526-30    H    0.69654030    0.59755020    0.50000000    0.12310000
opls_526-31    H    0.90101041    0.30346038    0.50000000    0.12310000
opls_526-32    H    0.40245037    0.09899021    0.50000000    0.12310000
opls_526-33    H    0.30345970    0.40244980    0.50000000    0.12310000
opls_526-34    H    0.09898998    0.69654041    0.50000000    0.12310000
opls_526-35    H    0.59755003    0.90101058    0.50000000    0.12310000
opls_520-36    N    0.44255027    0.72128004    0.50000000    -0.39260000
opls_520-37    N    0.27872977    0.72128004    0.50000000    -0.39270000
opls_520-38    N    0.27872991    0.55745021    0.50000000    -0.39220000
opls_520-39    N    0.55744973    0.27871996    0.50000000    -0.39270000
opls_520-40    N    0.72128018    0.27873026    0.50000000    -0.39270000
opls_520-41    N    0.72127970    0.44254979    0.50000000    -0.39220000
