#======================================================================
# Crystal Data Generated By AuToFF
#----------------------------------------------------------------------

data_AuToFF_phase_1

_cell_length_a                         23.6245
_cell_length_b                         24.8922
_cell_length_c                         4.4791
_cell_angle_alpha                      90.18
_cell_angle_beta                       97.59
_cell_angle_gamma                      120.06
_symmetry_space_group_name_H-M_alt     'P 1'
_symmetry_space_group_IT_number        1

loop_
_space_group_symop_operation_xyz
   'x, y, z'

loop_
   _atom_site_label
   _atom_site_type_symbol
   _atom_site_fract_x
   _atom_site_fract_y
   _atom_site_fract_z
   _atom_site_charge
opls_700-0    C    0.44111018    0.50227029    0.67799100    0.02620000
opls_700-1    C    0.43989004    0.44631008    0.74106045    0.01830000
opls_700-2    C    0.49362025    0.43908999    0.69328946    0.01980000
opls_700-3    C    0.54614011    0.48690014    0.55735004    0.01530000
opls_700-4    C    0.54906014    0.54473987    0.51925980    0.01310000
opls_700-5    C    0.49849011    0.55348996    0.59819040    0.02620000
opls_145-6    C    0.38325040    0.50444030    0.67710066    -0.10460000
opls_700-7    C    0.32572015    0.45414006    0.74703974    0.00820000
opls_700-8    C    0.32509026    0.39912006    0.83184115    -0.11750000
opls_700-9    C    0.38340024    0.39659030    0.84163940    0.01630000
opls_700-10    C    0.38448035    0.34372007    0.94285107    -0.11210000
opls_700-11    C    0.43965019    0.33737024    0.90961024    0.02860000
opls_145-12    C    0.49164999    0.38365009    0.77657007    -0.18770000
opls_700-13    C    0.60233985    0.59405006    0.39853975    0.01630000
opls_700-14    C    0.60957025    0.65387011    0.39489931    -0.11190000
opls_700-15    C    0.55972017    0.66269018    0.48805047    0.03130000
opls_145-16    C    0.50587030    0.61305025    0.58902036    -0.21440000
opls_145-17    C    0.59591005    0.47927987    0.45804107    -0.11550000
opls_700-18    C    0.64635022    0.52628002    0.32171072    0.02740000
opls_700-19    C    0.64821984    0.58354002    0.28028057    -0.12450000
opls_700-20    C    0.26742016    0.46167033    0.69353126    0.06280000
opls_700-21    C    0.55692986    0.72055987    0.46061040    0.06710000
opls_700-22    C    0.69753986    0.51468007    0.23220904    0.06240000
opls_700-23    C    0.44431017    0.28185021    0.99251121    0.05710000
opls_145-24    C    0.26916004    0.51206020    0.84457029    -0.12610000
opls_145-25    C    0.22591039    0.53249026    0.73217966    -0.13090000
opls_700-26    C    0.18024011    0.50243001    0.46924036    0.05540000
opls_145-27    C    0.17610998    0.45003008    0.32796117    -0.12720000
opls_145-28    C    0.22108030    0.43145009    0.43383018    -0.09110000
opls_145-29    C    0.39851036    0.22277029    0.84819040    -0.12690000
opls_145-30    C    0.40895056    0.17261034    0.89305084    -0.13930000
opls_700-31    C    0.46470005    0.18063992    0.08888025    0.04870000
opls_145-32    C    0.50873020    0.23889000    0.24437098    -0.12710000
opls_145-33    C    0.49940998    0.28931998    0.19076081    -0.12440000
opls_145-34    C    0.59275008    0.77058029    0.68183934    -0.12710000
opls_145-35    C    0.58087039    0.82033020    0.68246077    -0.14100000
opls_700-36    C    0.53204015    0.81991016    0.46427119    0.04920000
opls_145-37    C    0.49696978    0.77025000    0.24106949    -0.12850000
opls_145-38    C    0.50875003    0.72067987    0.24184910    -0.13170000
opls_145-39    C    0.67940995    0.46062008    0.05260910    -0.14150000
opls_145-40    C    0.72672014    0.45463999    0.92386019    -0.14000000
opls_700-41    C    0.79280015    0.50255992    0.97822963    0.05780000
opls_145-42    C    0.81197986    0.55340980    0.18472955    -0.13170000
opls_145-43    C    0.76471005    0.55849004    0.31760928    -0.13570000
opls_234-44    C    0.26411033    0.34225999    0.89350052    0.40870000
opls_234-45    C    0.32759998    0.29747999    0.08829950    0.40810000
opls_234-46    C    0.69673015    0.63376002    0.11239967    0.40920000
opls_234-47    C    0.67141998    0.70619001    0.30798051    0.40920000
opls_258-48    C    0.77700986    0.74369991    0.06953910    0.10110000
opls_142-49    C    0.51379003    0.86832983    0.47464115    0.06460000
opls_142-50    C    0.13978026    0.52801014    0.33603071    0.07360000
opls_142-51    C    0.48089988    0.13076006    0.11392951    0.06450000
opls_142-52    C    0.84253005    0.49753008    0.83848932    0.07360000
opls_145-53    C    0.95473012    0.49506987    0.64094927    -0.18240000
opls_145-54    C    0.00772015    0.48507992    0.71825964    -0.17450000
opls_145-55    C    0.06239042    0.52730033    0.92520021    0.18410000
opls_145-56    C    0.06942973    0.58491993    0.01055074    -0.17570000
opls_145-57    C    0.01651032    0.59472019    0.93350025    -0.19990000
opls_145-58    C    0.95711004    0.54750023    0.77391939    0.17960000
opls_145-59    C    0.43879017    0.99245011    0.63760937    -0.18400000
opls_145-60    C    0.45587008    0.94734006    0.58551097    -0.18070000
opls_145-61    C    0.51160987    0.95037999    0.76046939    0.17550000
opls_145-62    C    0.54799020    0.99761027    0.99327952    -0.18290000
opls_145-63    C    0.53083001    0.04270978    0.04585925    -0.18530000
opls_145-64    C    0.47576019    0.04028024    0.86705926    0.17550000
opls_258-65    C    0.21011010    0.24195023    0.16708095    0.10070000
opls_136-66    C    0.78653977    0.81005990    0.07162033    -0.22010000
opls_136-67    C    0.84906005    0.85882019    0.95205049    -0.16570000
opls_136-68    C    0.84380025    0.91622034    0.87835120    -0.15110000
opls_136-69    C    0.90458018    0.96349031    0.74651096    -0.15260000
opls_136-70    C    0.89817003    0.01975013    0.66184965    -0.13020000
opls_135-71    C    0.95733010    0.06518994    0.51587018    -0.42360000
opls_136-72    C    0.83622990    0.74347992    0.26685091    -0.21970000
opls_136-73    C    0.88362974    0.73755991    0.08335066    -0.15640000
opls_136-74    C    0.94136004    0.74018993    0.29862065    -0.15250000
opls_136-75    C    0.99850979    0.75217984    0.13104030    -0.15240000
opls_136-76    C    0.05628979    0.75715986    0.35346012    -0.13280000
opls_135-77    C    0.11608973    0.77526993    0.19431991    -0.42360000
opls_136-78    C    0.14816011    0.24900984    0.14881996    -0.22500000
opls_136-79    C    0.08993019    0.20071018    0.29457119    -0.15120000
opls_136-80    C    0.05060038    0.22933022    0.40116106    -0.15500000
opls_136-81    C    0.00634986    0.23666008    0.14258081    -0.15180000
opls_136-82    C    0.96721028    0.26249024    0.27207092    -0.13340000
opls_135-83    C    0.92421004    0.27261995    0.01953097    -0.42350000
opls_136-84    C    0.19184998    0.17826986    0.00942087    -0.22010000
opls_136-85    C    0.19666002    0.13291984    0.22972106    -0.15620000
opls_136-86    C    0.18651015    0.07398994    0.06226951    -0.15630000
opls_136-87    C    0.11341010    0.02863000    0.93679948    -0.15230000
opls_136-88    C    0.10566997    0.96979000    0.78401141    -0.13340000
opls_135-89    C    0.03340998    0.92548007    0.64905046    -0.42360000
opls_146-90    H    0.37932017    0.54311997    0.59151059    0.10510000
opls_146-91    H    0.53027037    0.37471010    0.74310100    0.08260000
opls_146-92    H    0.47057034    0.62290019    0.66673973    0.09960000
opls_146-93    H    0.59674003    0.43682018    0.48085997    0.09860000
opls_146-94    H    0.30648023    0.53746994    0.03955004    0.10940000
opls_146-95    H    0.22934031    0.57278015    0.84520979    0.10640000
opls_146-96    H    0.14176993    0.42673003    0.12179116    0.10940000
opls_146-97    H    0.22355013    0.39683021    0.30121032    0.08710000
opls_146-98    H    0.35605010    0.21626997    0.69400128    0.10270000
opls_146-99    H    0.37458035    0.12795012    0.76996032    0.10700000
opls_146-100    H    0.55216987    0.24611994    0.39529928    0.10390000
opls_146-101    H    0.53632980    0.33468994    0.29597901    0.08050000
opls_146-102    H    0.62782003    0.76959012    0.85959984    0.10890000
opls_146-103    H    0.60780026    0.85789026    0.85943940    0.10390000
opls_146-104    H    0.45900990    0.76894006    0.07117968    0.10940000
opls_146-105    H    0.47870994    0.68122987    0.07804930    0.11050000
opls_146-106    H    0.62851970    0.42425979    0.00399975    0.09860000
opls_146-107    H    0.71159033    0.41391021    0.77445043    0.10420000
opls_146-108    H    0.86361997    0.58866004    0.24435064    0.11180000
opls_146-109    H    0.77966987    0.59784982    0.47596988    0.11040000
opls_140-110    H    0.77547000    0.73072015    0.82834081    0.07070000
opls_144-111    H    0.48328006    0.87058000    0.27826940    0.10930000
opls_144-112    H    0.13789988    0.56312989    0.47004031    0.11170000
opls_144-113    H    0.51600011    0.13426998    0.30532983    0.11030000
opls_144-114    H    0.83451022    0.45148018    0.78776032    0.09270000
opls_146-115    H    0.91022998    0.45972023    0.50089034    0.11160000
opls_146-116    H    0.00397037    0.44203021    0.64054026    0.10850000
opls_146-117    H    0.11315965    0.61998978    0.15559919    0.10760000
opls_146-118    H    0.01814040    0.63507032    0.03355042    0.10510000
opls_146-119    H    0.39696999    0.99087017    0.49684992    0.10830000
opls_146-120    H    0.42529004    0.91054008    0.40940912    0.10510000
opls_146-121    H    0.59008001    0.99936999    0.13259952    0.10670000
opls_146-122    H    0.56121016    0.07920988    0.22324011    0.11470000
opls_140-123    H    0.22692003    0.24330024    0.41332074    0.08290000
opls_140-124    H    0.78930995    0.82747018    0.30365988    0.09320000
opls_140-125    H    0.74191972    0.80621984    0.93197041    0.10100000
opls_140-126    H    0.85481011    0.83923992    0.74621041    0.09320000
opls_140-127    H    0.89394019    0.87214993    0.12088953    0.10490000
opls_140-128    H    0.83909047    0.93753028    0.08537087    0.10100000
opls_140-129    H    0.79832004    0.90226030    0.71124087    0.11680000
opls_140-130    H    0.90895020    0.94125008    0.54187984    0.10100000
opls_140-131    H    0.95042006    0.97842006    0.91123048    0.11180000
opls_140-132    H    0.89519040    0.04338029    0.86627061    0.12180000
opls_140-133    H    0.85157008    0.00443019    0.50115021    0.12180000
opls_140-134    H    0.96696997    0.04106983    0.33780009    0.15750000
opls_140-135    H    0.00265042    0.08948019    0.68719042    0.15690000
opls_140-136    H    0.94680024    0.09984006    0.40700024    0.15730000
opls_140-137    H    0.81767001    0.70483013    0.41720976    0.11590000
opls_140-138    H    0.86537004    0.78653991    0.41659963    0.09510000
opls_140-139    H    0.90285996    0.77634992    0.93357934    0.10810000
opls_140-140    H    0.85657988    0.69253999    0.93977104    0.11680000
opls_140-141    H    0.92376995    0.69576001    0.40965091    0.10480000
opls_140-142    H    0.95980025    0.77805019    0.48090968    0.07790000
opls_140-143    H    0.01522969    0.79644980    0.01899089    0.10930000
opls_140-144    H    0.98129960    0.71352973    0.95341086    0.10940000
opls_140-145    H    0.04083995    0.71176994    0.45384925    0.12160000
opls_140-146    H    0.07050026    0.79306028    0.54208999    0.12210000
opls_140-147    H    0.15718987    0.77724005    0.35592098    0.15470000
opls_140-148    H    0.13387997    0.82188998    0.10626898    0.10380000
opls_140-149    H    0.10354971    0.74078000    0.00275915    0.15470000
opls_140-150    H    0.12847970    0.24677976    0.91135024    0.10460000
opls_140-151    H    0.16517996    0.29591018    0.25261904    0.11270000
opls_140-152    H    0.10904019    0.18460999    0.48946055    0.09950000
opls_140-153    H    0.05690982    0.15878997    0.13551007    0.11410000
opls_140-154    H    0.08486992    0.27600013    0.52504926    0.11630000
opls_140-155    H    0.01973009    0.19935011    0.56510097    0.11770000
opls_140-156    H    0.97165014    0.19078996    0.01384997    0.10980000
opls_140-157    H    0.03763984    0.26969996    0.98699065    0.11170000
opls_140-158    H    0.00203001    0.30772006    0.40761037    0.11650000
opls_140-159    H    0.93516981    0.22926985    0.42538099    0.10930000
opls_140-160    H    0.95549992    0.30770981    0.87147028    0.15480000
opls_140-161    H    0.89536005    0.29045008    0.11778012    0.15480000
opls_140-162    H    0.88866993    0.22823016    0.88184025    0.15470000
opls_140-163    H    0.22535013    0.18659006    0.84161906    0.11930000
opls_140-164    H    0.14088000    0.15475018    0.88638007    0.07980000
opls_140-165    H    0.15978003    0.11996024    0.38619025    0.07780000
opls_140-166    H    0.24686991    0.15665997    0.36796090    0.10970000
opls_140-167    H    0.20486006    0.05011995    0.22357907    0.10970000
opls_140-168    H    0.21713007    0.08682995    0.87693886    0.11550000
opls_140-169    H    0.09427034    0.05085030    0.76939086    0.10110000
opls_140-170    H    0.08324048    0.01599023    0.12344982    0.10480000
opls_140-171    H    0.12280036    0.94588008    0.95150137    0.12210000
opls_140-172    H    0.13691993    0.98246997    0.60108061    0.12180000
opls_140-173    H    0.02930012    0.88528995    0.51948125    0.15740000
opls_140-174    H    0.01440967    0.94912979    0.49064918    0.15470000
opls_140-175    H    0.00195991    0.90780992    0.83015086    0.10400000
opls_251-176    N    0.26710005    0.29470983    0.04277921    -0.24120000
opls_251-177    N    0.71351000    0.69496977    0.16483025    -0.24370000
opls_750-178    N    0.89887995    0.54735995    0.82514101    -0.31960000
opls_750-179    N    0.10566992    0.50743011    0.06743980    -0.32190000
opls_750-180    N    0.45804009    0.08720000    0.89582128    -0.37830000
opls_750-181    N    0.53124986    0.90522993    0.71719078    -0.37820000
opls_236-182    O    0.21114037    0.33782024    0.80184983    -0.39760000
opls_236-183    O    0.33498998    0.26196979    0.25329923    -0.41020000
opls_236-184    O    0.68484014    0.75916024    0.37224085    -0.40240000
opls_236-185    O    0.72192052    0.62071034    0.92475052    -0.43790000
