#======================================================================
# Crystal Data Generated By AuToFF
#----------------------------------------------------------------------

data_AuToFF_phase_1

_cell_length_a                         22.8500
_cell_length_b                         22.8500
_cell_length_c                         3.3400
_cell_angle_alpha                      90.00
_cell_angle_beta                       90.00
_cell_angle_gamma                      90.00
_symmetry_space_group_name_H-M_alt     'P 1'
_symmetry_space_group_IT_number        1

loop_
_space_group_symop_operation_xyz
   'x, y, z'

loop_
   _atom_site_label
   _atom_site_type_symbol
   _atom_site_fract_x
   _atom_site_fract_y
   _atom_site_fract_z
   _atom_site_charge
opls_145-0    C    0.44784989    0.03036018    0.50000000    -0.06900000
opls_166-1    C    0.53088009    0.21730985    0.50000000    0.17430000
opls_145-2    C    0.43789978    0.26901007    0.50000000    -0.18610000
opls_716-3    C    0.47061007    0.32023982    0.50000000    -0.00220000
opls_507-4    C    0.44690985    0.37751991    0.50000000    0.35060000
opls_145-5    C    0.96963982    0.44784989    0.50000000    -0.06900000
opls_166-6    C    0.78269015    0.53088009    0.50000000    0.17430000
opls_145-7    C    0.73098993    0.43789978    0.50000000    -0.18610000
opls_716-8    C    0.67976018    0.47061007    0.50000000    -0.00220000
opls_543-9    C    0.62248009    0.44690985    0.50000000    0.33660000
opls_145-10    C    0.55215011    0.96963982    0.50000000    -0.06900000
opls_166-11    C    0.46911991    0.78269015    0.50000000    0.17430000
opls_145-12    C    0.56209978    0.73098993    0.50000000    -0.18610000
opls_716-13    C    0.52938993    0.67976018    0.50000000    -0.00220000
opls_507-14    C    0.55309015    0.62248009    0.50000000    0.35060000
opls_145-15    C    0.03036018    0.55215011    0.50000000    -0.06900000
opls_166-16    C    0.21730985    0.46911991    0.50000000    0.17430000
opls_145-17    C    0.26901007    0.56209978    0.50000000    -0.18610000
opls_716-18    C    0.32023982    0.52938993    0.50000000    -0.00220000
opls_543-19    C    0.37751991    0.55309015    0.50000000    0.33660000
opls_145-20    C    0.55215011    0.03036018    0.50000000    -0.06900000
opls_166-21    C    0.46911991    0.21730985    0.50000000    0.17430000
opls_145-22    C    0.56209978    0.26901007    0.50000000    -0.18610000
opls_716-23    C    0.52938993    0.32023982    0.50000000    -0.00220000
opls_507-24    C    0.55309015    0.37751991    0.50000000    0.35060000
opls_145-25    C    0.03036018    0.44784989    0.50000000    -0.06900000
opls_166-26    C    0.21730985    0.53088009    0.50000000    0.17430000
opls_145-27    C    0.26901007    0.43789978    0.50000000    -0.18610000
opls_716-28    C    0.32023982    0.47061007    0.50000000    -0.00220000
opls_543-29    C    0.37751991    0.44690985    0.50000000    0.33660000
opls_145-30    C    0.44784989    0.96963982    0.50000000    -0.06900000
opls_166-31    C    0.53088009    0.78269015    0.50000000    0.17430000
opls_145-32    C    0.43789978    0.73098993    0.50000000    -0.18610000
opls_716-33    C    0.47061007    0.67976018    0.50000000    -0.00220000
opls_507-34    C    0.44690985    0.62248009    0.50000000    0.35060000
opls_145-35    C    0.96963982    0.55215011    0.50000000    -0.06900000
opls_166-36    C    0.78269015    0.46911991    0.50000000    0.17430000
opls_145-37    C    0.73098993    0.56209978    0.50000000    -0.18610000
opls_716-38    C    0.67976018    0.52938993    0.50000000    -0.00220000
opls_543-39    C    0.62248009    0.55309015    0.50000000    0.33660000
opls_145-40    C    0.50000000    0.06042013    0.50000000    -0.24890000
opls_145-41    C    0.50000000    0.93957987    0.50000000    -0.24900000
opls_145-42    C    0.93957987    0.50000000    0.50000000    -0.24890000
opls_145-43    C    0.06042013    0.50000000    0.50000000    -0.24890000
opls_167-44    O    0.44690985    0.16189015    0.50000000    -0.35080000
opls_167-45    O    0.83810985    0.44690985    0.50000000    -0.35080000
opls_167-46    O    0.55309015    0.83810985    0.50000000    -0.35070000
opls_167-47    O    0.16189015    0.55309015    0.50000000    -0.35070000
opls_167-48    O    0.55309015    0.16189015    0.50000000    -0.35070000
opls_167-49    O    0.16189015    0.44690985    0.50000000    -0.35080000
opls_167-50    O    0.44690985    0.83810985    0.50000000    -0.35090000
opls_167-51    O    0.83810985    0.55309015    0.50000000    -0.35070000
opls_146-52    H    0.40651991    0.05425996    0.50000000    0.10710000
opls_146-53    H    0.39037987    0.27112998    0.50000000    0.11250000
opls_146-54    H    0.94574004    0.40651991    0.50000000    0.10710000
opls_146-55    H    0.72887002    0.39037987    0.50000000    0.11250000
opls_146-56    H    0.59348009    0.94574004    0.50000000    0.10700000
opls_146-57    H    0.60962013    0.72887002    0.50000000    0.11250000
opls_146-58    H    0.05425996    0.59348009    0.50000000    0.10710000
opls_146-59    H    0.27112998    0.60962013    0.50000000    0.11250000
opls_146-60    H    0.59348009    0.05425996    0.50000000    0.10710000
opls_146-61    H    0.60962013    0.27112998    0.50000000    0.11250000
opls_146-62    H    0.05425996    0.40651991    0.50000000    0.10710000
opls_146-63    H    0.27112998    0.39037987    0.50000000    0.11240000
opls_146-64    H    0.40651991    0.94574004    0.50000000    0.10710000
opls_146-65    H    0.39037987    0.72887002    0.50000000    0.11250000
opls_146-66    H    0.94574004    0.59348009    0.50000000    0.10710000
opls_146-67    H    0.72887002    0.60962013    0.50000000    0.11250000
opls_545-68    H    0.45823982    0.50000000    0.50000000    0.24420000
opls_545-69    H    0.54176018    0.50000000    0.50000000    0.24420000
opls_750-70    N    0.39483982    0.39483982    0.50000000    -0.32020000
opls_750-71    N    0.60516018    0.60516018    0.50000000    -0.32010000
opls_750-72    N    0.60516018    0.39483982    0.50000000    -0.32010000
opls_750-73    N    0.39483982    0.60516018    0.50000000    -0.32010000
opls_542-74    N    0.50000000    0.41343020    0.50000000    -0.37030000
opls_542-75    N    0.50000000    0.58656980    0.50000000    -0.37020000
opls_542-76    N    0.58656980    0.50000000    0.50000000    -0.40400000
opls_542-77    N    0.41343020    0.50000000    0.50000000    -0.40400000
MOF2_B_2-78    B    0.50000000    0.12749978    0.50000000    0.57520000
MOF2_B_2-79    B    0.50000000    0.87249978    0.50000000    0.57530000
MOF2_B_2-80    B    0.87249978    0.50000000    0.50000000    0.57520000
MOF2_B_2-81    B    0.12749978    0.50000000    0.50000000    0.57530000
