#======================================================================
# Crystal Data Generated By AuToFF
#----------------------------------------------------------------------

data_AuToFF_phase_1

_cell_length_a                         29.9031
_cell_length_b                         30.0001
_cell_length_c                         6.8919
_cell_angle_alpha                      90.78
_cell_angle_beta                       91.42
_cell_angle_gamma                      60.12
_symmetry_space_group_name_H-M_alt     'P 1'
_symmetry_space_group_IT_number        1

loop_
_space_group_symop_operation_xyz
   'x, y, z'

loop_
   _atom_site_label
   _atom_site_type_symbol
   _atom_site_fract_x
   _atom_site_fract_y
   _atom_site_fract_z
   _atom_site_charge
opls_700-0    C    0.02569996    0.02973982    0.00537027    0.07830000
opls_700-1    C    0.97132010    0.05520984    0.01155044    0.00080000
opls_700-2    C    0.94483003    0.02684004    0.00974051    0.07860000
opls_700-3    C    0.97359008    0.97254017    0.00930944    0.00110000
opls_700-4    C    0.02834003    0.94645001    0.01492065    0.07840000
opls_700-5    C    0.05413983    0.97504020    0.00324974    0.00120000
opls_142-6    C    0.10984028    0.95140009    0.98161044    0.06970000
opls_142-7    C    0.93909994    0.11116019    0.02798057    0.06940000
opls_142-8    C    0.94982024    0.94019990    0.98408077    0.07000000
opls_145-9    C    0.91736019    0.19686983    0.98605035    0.17700000
opls_700-10    C    0.93864013    0.22980994    0.99877064    0.08880000
opls_145-11    C    0.86331012    0.21897982    0.98073088    -0.17040000
opls_145-12    C    0.90528001    0.28269007    0.00910044    -0.17840000
opls_145-13    C    0.83102004    0.27187010    0.98683122    -0.12890000
opls_700-14    C    0.85115001    0.30547009    0.00097971    0.06450000
opls_145-15    C    0.19619025    0.88559992    0.99408109    0.18030000
opls_700-16    C    0.22937024    0.83152989    0.99356003    0.08910000
opls_145-17    C    0.21861005    0.91729007    0.99158028    -0.17050000
opls_145-18    C    0.28258012    0.81186010    0.99314056    -0.17940000
opls_145-19    C    0.27161032    0.89667006    0.98765127    -0.12650000
opls_700-20    C    0.30544027    0.84305002    0.98948007    0.06500000
opls_145-21    C    0.88606987    0.91736020    0.01402948    0.19280000
opls_700-22    C    0.83186993    0.93831003    0.00231938    0.08870000
opls_145-23    C    0.91799986    0.86355015    0.01195974    -0.17350000
opls_145-24    C    0.81219011    0.90489003    0.98928993    -0.17960000
opls_145-25    C    0.89730004    0.83120005    0.99997097    -0.12880000
opls_700-26    C    0.84354030    0.85094998    0.98980084    0.06820000
opls_700-27    C    0.81737008    0.36196009    0.99976051    0.06450000
opls_145-28    C    0.83755019    0.39529977    0.98345085    -0.12890000
opls_145-29    C    0.76327974    0.38496026    0.00699006    -0.17840000
opls_145-30    C    0.80541997    0.44823006    0.97493098    -0.17020000
opls_700-31    C    0.73007018    0.43781995    0.99418124    0.08750000
opls_145-32    C    0.75146996    0.47042015    0.98005016    0.19050000
opls_700-33    C    0.36211011    0.82057017    0.98736099    0.06500000
opls_145-34    C    0.38523023    0.85160990    0.99684025    -0.17960000
opls_145-35    C    0.44857018    0.74653002    0.96137032    -0.17020000
opls_700-36    C    0.43823003    0.83206007    0.98545091    0.08820000
opls_145-37    C    0.47085011    0.77823015    0.96894095    0.19160000
opls_700-38    C    0.82088027    0.81689985    0.98948007    0.06820000
opls_145-39    C    0.76722993    0.83674003    0.00113937    -0.12850000
opls_145-40    C    0.85208036    0.76296987    0.98742050    -0.17840000
opls_145-41    C    0.74653991    0.80451028    0.01221955    -0.17030000
opls_700-42    C    0.83242990    0.72966015    0.00001016    0.08810000
opls_145-43    C    0.77839995    0.75068032    0.01214988    0.19160000
opls_700-44    C    0.64156991    0.63649996    0.01593955    0.07830000
opls_700-45    C    0.61229017    0.69099008    0.01350987    0.00430000
opls_700-46    C    0.63712000    0.72054005    0.00247033    0.07870000
opls_142-47    C    0.55602985    0.71590024    0.03219987    0.06940000
opls_700-48    C    0.69153015    0.69523985    0.99238002    0.00130000
opls_142-49    C    0.71520023    0.72736995    0.96366067    0.06830000
opls_700-50    C    0.72145002    0.64105013    0.00349939    0.07860000
opls_700-51    C    0.69610013    0.61204008    0.01592939    0.00450000
opls_142-52    C    0.72848003    0.55588004    0.03766013    0.06980000
opls_148-53    C    0.88687012    0.05605974    0.99855003    -0.41630000
opls_148-54    C    0.05439011    0.05908998    0.01292930    -0.39710000
opls_148-55    C    0.05779985    0.88901028    0.03769061    -0.44860000
opls_148-56    C    0.60732992    0.77839007    0.01582053    -0.43200000
opls_148-57    C    0.77936030    0.61397987    0.99019998    -0.43170000
opls_148-58    C    0.61519005    0.60491012    0.01563040    -0.41630000
opls_145-59    C    0.39554010    0.76717987    0.96955055    -0.12780000
opls_148-60    C    0.79652003    0.99553024    0.00341956    -0.43270000
opls_148-61    C    0.20770005    0.79585005    0.99286044    -0.43590000
opls_148-62    C    0.86770036    0.67244990    0.99881128    -0.43270000
opls_148-63    C    0.67259018    0.46014003    0.99575023    -0.43270000
opls_148-64    C    0.99604017    0.20861979    0.99840053    -0.43110000
opls_148-65    C    0.46054002    0.86722023    0.99270078    -0.43610000
opls_700-66    C    0.97470007    0.96974030    0.51541994    0.07860000
opls_700-67    C    0.02931018    0.94513020    0.51561008    0.00130000
opls_700-68    C    0.05476008    0.97420001    0.50542978    0.07850000
opls_700-69    C    0.02487015    0.02840999    0.50140063    0.00060000
opls_700-70    C    0.97041016    0.05377981    0.51067088    0.07980000
opls_700-71    C    0.94550005    0.02427999    0.51477986    0.00150000
opls_142-72    C    0.88938987    0.04894014    0.53037978    0.06970000
opls_142-73    C    0.06179011    0.88923001    0.53454972    0.07060000
opls_142-74    C    0.04802012    0.06086982    0.47611099    0.06970000
opls_145-75    C    0.08315999    0.80373998    0.48759031    0.19140000
opls_700-76    C    0.06185005    0.77102021    0.50260095    0.08890000
opls_145-77    C    0.13701007    0.78162011    0.47573072    -0.17030000
opls_145-78    C    0.09513021    0.71811009    0.51064040    -0.17940000
opls_145-79    C    0.16915008    0.72870021    0.48060025    -0.12650000
opls_700-80    C    0.14914005    0.69526025    0.49888966    0.06450000
opls_145-81    C    0.80423018    0.11236999    0.47291060    0.19160000
opls_700-82    C    0.77185992    0.16629011    0.48724052    0.08820000
opls_145-83    C    0.78176994    0.08085006    0.46511064    -0.16930000
opls_145-84    C    0.71877024    0.18608983    0.49685041    -0.18100000
opls_145-85    C    0.72871028    0.10172990    0.47172043    -0.12760000
opls_700-86    C    0.69548000    0.15518998    0.48815057    0.06500000
opls_145-87    C    0.11249989    0.08278007    0.51159979    0.19160000
opls_700-88    C    0.16658013    0.06149995    0.50015966    0.08890000
opls_145-89    C    0.08072014    0.13661014    0.50915994    -0.16880000
opls_145-90    C    0.18629992    0.09476006    0.48752065    -0.17620000
opls_145-91    C    0.10150014    0.16873008    0.49749049    -0.12780000
opls_700-92    C    0.15523018    0.14869994    0.48844085    0.06850000
opls_700-93    C    0.18305017    0.63880007    0.49787076    0.06450000
opls_145-94    C    0.16313995    0.60502999    0.48237099    -0.13150000
opls_145-95    C    0.23713984    0.61614023    0.50564024    -0.17840000
opls_145-96    C    0.19560986    0.55215023    0.47476988    -0.17600000
opls_700-97    C    0.27064986    0.56328018    0.49368049    0.09480000
opls_145-98    C    0.24968015    0.53010988    0.48024030    0.18410000
opls_700-99    C    0.63881994    0.17787009    0.49299978    0.06450000
opls_145-100    C    0.61582003    0.14679988    0.49425090    -0.17160000
opls_145-101    C    0.55223009    0.25206007    0.51140965    -0.17050000
opls_700-102    C    0.56272984    0.16644016    0.50316991    0.08880000
opls_145-103    C    0.52979025    0.22042983    0.51283060    0.17580000
opls_700-104    C    0.17814995    0.18251996    0.49098084    0.06460000
opls_145-105    C    0.23193022    0.16256985    0.50140063    -0.13050000
opls_145-106    C    0.14702002    0.23643005    0.49327990    -0.17410000
opls_145-107    C    0.25286023    0.19471990    0.51670010    -0.17350000
opls_700-108    C    0.16687026    0.26960981    0.51004096    0.08820000
opls_145-109    C    0.22105026    0.24846997    0.52242016    0.19910000
opls_700-110    C    0.35833999    0.36308991    0.50897997    0.07900000
opls_700-111    C    0.38707027    0.30857981    0.50225987    0.00670000
opls_700-112    C    0.36158024    0.27956992    0.50677961    0.07860000
opls_142-113    C    0.44317984    0.28457018    0.47764080    0.06990000
opls_700-114    C    0.30689990    0.30536018    0.50105083    0.00670000
opls_142-115    C    0.28258020    0.27323993    0.47338957    0.07800000
opls_700-116    C    0.27775985    0.35962020    0.50454006    0.07900000
opls_700-117    C    0.30382990    0.38838010    0.51075071    0.00480000
opls_142-118    C    0.27156995    0.44452016    0.52580053    0.07000000
opls_148-119    C    0.11240018    0.94749001    0.48494001    -0.40370000
opls_148-120    C    0.94775003    0.93885004    0.51220068    -0.44880000
opls_148-121    C    0.94117999    0.11139988    0.52846100    -0.39700000
opls_148-122    C    0.39166009    0.22182994    0.52124016    -0.43560000
opls_148-123    C    0.21967012    0.38800987    0.49044091    -0.43590000
opls_148-124    C    0.38677002    0.39264997    0.52850018    -0.43170000
opls_145-125    C    0.60515996    0.23146013    0.50029029    -0.12890000
opls_148-126    C    0.20184015    0.00424996    0.50139047    -0.43270000
opls_148-127    C    0.79452011    0.20113004    0.49264998    -0.43270000
opls_148-128    C    0.13162023    0.32686992    0.51280012    -0.43590000
opls_148-129    C    0.32795999    0.54246013    0.49215069    -0.43200000
opls_148-130    C    0.00440991    0.79335017    0.50850971    -0.43590000
opls_148-131    C    0.54097001    0.13084011    0.49931057    -0.43200000
opls_144-132    H    0.12222003    0.97835016    0.93455089    0.06950000
opls_144-133    H    0.90197983    0.12433018    0.09912073    0.06270000
opls_144-134    H    0.97360029    0.90400999    0.90540046    0.06540000
opls_146-135    H    0.92279000    0.30696013    0.02218939    0.10470000
opls_146-136    H    0.78954008    0.28695986    0.97609067    0.10670000
opls_146-137    H    0.30692029    0.77016004    0.99747017    0.10570000
opls_146-138    H    0.28670007    0.92304009    0.98483116    0.10560000
opls_146-139    H    0.77035011    0.92220988    0.98148127    0.10460000
opls_146-140    H    0.92376004    0.78988000    0.00388111    0.10670000
opls_146-141    H    0.87894035    0.37992979    0.97217037    0.10720000
opls_146-142    H    0.74575021    0.36085988    0.02090052    0.10520000
opls_146-143    H    0.36112008    0.89312012    0.01287995    0.10520000
opls_146-144    H    0.74098009    0.87807019    0.00670994    0.10680000
opls_146-145    H    0.89383002    0.74558009    0.97876130    0.10570000
opls_144-146    H    0.54171011    0.69636013    0.12586033    0.06280000
opls_144-147    H    0.69276994    0.76173023    0.87187980    0.05900000
opls_144-148    H    0.76328981    0.54267026    0.13151944    0.05170000
opls_146-149    H    0.82206018    0.47298985    0.95580120    0.10700000
opls_146-150    H    0.47339031    0.70520005    0.94154095    0.10640000
opls_146-151    H    0.84642010    0.19416995    0.96466070    0.10700000
opls_146-152    H    0.19418022    0.95901014    0.99557025    0.10530000
opls_146-153    H    0.38015007    0.74109989    0.95814090    0.10680000
opls_146-154    H    0.70503984    0.82108029    0.02870048    0.10700000
opls_146-155    H    0.95971995    0.84685017    0.02755966    0.10700000
opls_144-156    H    0.87487002    0.02827982    0.61574100    0.06620000
opls_144-157    H    0.09902004    0.87612009    0.61164072    0.06240000
opls_144-158    H    0.02381997    0.09694003    0.39635083    0.06330000
opls_146-159    H    0.07775007    0.69387996    0.52501096    0.10520000
opls_146-160    H    0.21039999    0.71340010    0.46450975    0.10720000
opls_146-161    H    0.69480004    0.22766992    0.51083053    0.10570000
opls_146-162    H    0.71325996    0.07570001    0.46058074    0.10700000
opls_146-163    H    0.22809028    0.07727985    0.48047978    0.10570000
opls_146-164    H    0.07523011    0.21008994    0.50053993    0.10570000
opls_146-165    H    0.12166025    0.62003992    0.47194976    0.10560000
opls_146-166    H    0.25451001    0.64052000    0.52001080    0.10520000
opls_146-167    H    0.64004002    0.10508002    0.49078055    0.10520000
opls_146-168    H    0.25823017    0.12121001    0.50207989    0.10720000
opls_146-169    H    0.10517000    0.25391983    0.48459022    0.10460000
opls_144-170    H    0.45518007    0.30833018    0.39713024    0.06070000
opls_144-171    H    0.30253017    0.24052010    0.37244005    0.03950000
opls_144-172    H    0.23449996    0.45814014    0.59837034    0.06050000
opls_146-173    H    0.17881013    0.52730017    0.45729036    0.10950000
opls_146-174    H    0.52760019    0.29363012    0.52435056    0.10630000
opls_146-175    H    0.15359010    0.80636992    0.45478956    0.10580000
opls_146-176    H    0.80649019    0.03944993    0.44666013    0.10630000
opls_146-177    H    0.62033985    0.25778015    0.50015966    0.10550000
opls_146-178    H    0.29459014    0.17804011    0.53186023    0.10580000
opls_146-179    H    0.03913022    0.15337988    0.52339988    0.10630000
opls_702-180    H    0.41216023    0.20391996    0.38647968    0.12290000
opls_702-181    H    0.36687989    0.20590008    0.55551992    0.12600000
opls_702-182    H    0.42170030    0.21008987    0.63457033    0.12600000
opls_702-183    H    0.20479010    0.36160991    0.47134016    0.11650000
opls_702-184    H    0.20568011    0.41584016    0.37054013    0.12130000
opls_702-185    H    0.20264006    0.40976988    0.62444084    0.12910000
opls_702-186    H    0.39357027    0.40422994    0.38625036    0.12170000
opls_702-187    H    0.42403997    0.37006007    0.60423990    0.12450000
opls_702-188    H    0.36381006    0.42850007    0.60815004    0.12330000
opls_702-189    H    0.57309016    0.79136009    0.10422974    0.12610000
opls_702-190    H    0.59286004    0.79642033    0.87292047    0.12220000
opls_702-191    H    0.63114993    0.79327998    0.08057006    0.12420000
opls_702-192    H    0.79106000    0.63237011    0.88168998    0.12420000
opls_702-193    H    0.79574004    0.57338002    0.95134097    0.12600000
opls_702-194    H    0.79722018    0.61675991    0.12786040    0.12420000
opls_702-195    H    0.63414996    0.57273998    0.11775993    0.12420000
opls_702-196    H    0.61828995    0.58716995    0.87233990    0.12020000
opls_702-197    H    0.57426985    0.62747013    0.04949940    0.11650000
opls_702-198    H    0.07340987    0.86922008    0.89918981    0.13010000
opls_702-199    H    0.03413992    0.87453999    0.09938053    0.12180000
opls_702-200    H    0.09152005    0.87757011    0.13274009    0.12530000
opls_702-201    H    0.87115019    0.03052997    0.97268998    0.12500000
opls_702-202    H    0.87280017    0.08567999    0.88533016    0.11900000
opls_702-203    H    0.87109017    0.07582992    0.13699131    0.12080000
opls_702-204    H    0.06734995    0.06196018    0.86800014    0.12220000
opls_702-205    H    0.08855991    0.04055997    0.10894978    0.12200000
opls_702-206    H    0.02947027    0.09849982    0.06136045    0.11000000
opls_702-207    H    0.96921011    0.90334025    0.59547039    0.12320000
opls_702-208    H    0.94554019    0.92663006    0.36319012    0.12300000
opls_702-209    H    0.90824022    0.96028009    0.56408042    0.12050000
opls_702-210    H    0.12263999    0.96662020    0.37445027    0.12600000
opls_702-211    H    0.12887982    0.90720029    0.44216071    0.11650000
opls_702-212    H    0.13175019    0.94964006    0.61910975    0.12340000
opls_702-213    H    0.90502998    0.12465988    0.60431973    0.12590000
opls_702-214    H    0.93008030    0.13025982    0.38578010    0.12300000
opls_702-215    H    0.96391004    0.12535005    0.60830970    0.12600000
opls_702-216    H    0.20211000    0.98702985    0.35888954    0.12920000
opls_702-217    H    0.18909020    0.98572990    0.60558102    0.12300000
opls_702-218    H    0.24168008    0.99432990    0.53790977    0.12300000
opls_702-219    H    0.81716991    0.19608005    0.36246005    0.12360000
opls_702-220    H    0.82119991    0.19291015    0.61711985    0.12340000
opls_702-221    H    0.76417013    0.24159995    0.50207989    0.12380000
opls_702-222    H    0.09161009    0.33662003    0.53684007    0.12450000
opls_702-223    H    0.13253993    0.34438012    0.37462009    0.12080000
opls_702-224    H    0.14380012    0.34469986    0.62713033    0.11970000
opls_702-225    H    0.34196006    0.53473019    0.34228959    0.12910000
opls_702-226    H    0.34934010    0.50612020    0.57133029    0.12590000
opls_702-227    H    0.33775997    0.57030011    0.55626014    0.12060000
opls_702-228    H    0.99421991    0.76290015    0.50913962    0.12320000
opls_702-229    H    0.98528999    0.81834008    0.38240989    0.12510000
opls_702-230    H    0.98761996    0.81760022    0.63734981    0.12680000
opls_702-231    H    0.56985008    0.09231014    0.55000015    0.12400000
opls_702-232    H    0.52876998    0.12690001    0.35091977    0.13480000
opls_702-233    H    0.50669017    0.14580983    0.58944988    0.12490000
opls_702-234    H    0.75658003    0.00536005    0.02962068    0.12450000
opls_702-235    H    0.79686994    0.01294003    0.86413064    0.12910000
opls_702-236    H    0.80871987    0.01397023    0.11494997    0.11900000
opls_702-237    H    0.86781001    0.65589008    0.85506068    0.12290000
opls_702-238    H    0.85474035    0.65385982    0.10196117    0.12120000
opls_702-239    H    0.90751014    0.66251013    0.03600115    0.12320000
opls_702-240    H    0.23686023    0.75728993    0.04223067    0.12400000
opls_702-241    H    0.19460035    0.79189987    0.84609088    0.12910000
opls_702-242    H    0.17387003    0.81042008    0.08509996    0.12370000
opls_702-243    H    0.48372013    0.86180022    0.86385051    0.12320000
opls_702-244    H    0.48651034    0.85925000    0.11943052    0.12510000
opls_702-245    H    0.42985005    0.90758017    0.00025110    0.12370000
opls_702-246    H    0.66251030    0.42961988    0.99599987    0.12450000
opls_702-247    H    0.65436038    0.48474985    0.86805094    0.12320000
opls_702-248    H    0.65545017    0.48465994    0.12368029    0.12510000
opls_702-249    H    0.01080024    0.19889987    0.84982104    0.13000000
opls_702-250    H    0.01726006    0.17324994    0.08354113    0.12560000
opls_702-251    H    0.00594020    0.23693973    0.05655043    0.11900000
opls_750-252    N    0.14342020    0.90345007    0.00875935    -0.28990000
opls_750-253    N    0.95146028    0.14413001    0.96835022    -0.28630000
opls_750-254    N    0.90460004    0.95160018    0.04087939    -0.28600000
opls_750-255    N    0.52385022    0.75869992    0.95017112    -0.27890000
opls_750-256    N    0.75941983    0.71700016    0.03612017    -0.28050000
opls_750-257    N    0.71771012    0.52316987    0.95892031    -0.26920000
opls_750-258    N    0.85727008    0.09286982    0.45524966    -0.28330000
opls_750-259    N    0.04897019    0.85640009    0.47188009    -0.25840000
opls_750-260    N    0.09373014    0.04898004    0.53662091    -0.27730000
opls_750-261    N    0.47705007    0.23928004    0.53624063    -0.28520000
opls_750-262    N    0.24054015    0.28187988    0.55269980    -0.26850000
opls_750-263    N    0.28393029    0.47715985    0.46268966    -0.29390000
