#======================================================================
# Crystal Data Generated By AuToFF
#----------------------------------------------------------------------

data_AuToFF_phase_1

_cell_length_a                         30.7790
_cell_length_b                         30.7790
_cell_length_c                         4.3310
_cell_angle_alpha                      90.00
_cell_angle_beta                       90.00
_cell_angle_gamma                      120.00
_symmetry_space_group_name_H-M_alt     'P 1'
_symmetry_space_group_IT_number        1

loop_
_space_group_symop_operation_xyz
   'x, y, z'

loop_
   _atom_site_label
   _atom_site_type_symbol
   _atom_site_fract_x
   _atom_site_fract_y
   _atom_site_fract_z
   _atom_site_charge
opls_136-0    C    0.94661990    0.98558979    0.55162087    -0.20600000
opls_700-1    C    0.87033992    0.71969995    0.36906950    -0.20900000
opls_166-2    C    0.82563001    0.70155991    0.19535904    0.24000000
opls_145-3    C    0.79035998    0.65032976    0.19776957    -0.24920000
opls_700-4    C    0.79904984    0.61577992    0.35821057    -0.23600000
opls_166-5    C    0.84384991    0.63311974    0.52839067    0.21780000
opls_145-6    C    0.87876998    0.68521988    0.53377973    -0.25530000
opls_182-7    C    0.89515995    0.61226993    0.87117063    0.04660000
opls_136-8    C    0.94005979    0.62241985    0.66763103    -0.21890000
opls_136-9    C    0.98476993    0.63161986    0.86943893    -0.14910000
opls_234-10    C    0.75965993    0.56177998    0.35106904    0.42930000
opls_142-11    C    0.74413985    0.43787000    0.30429924    0.01300000
opls_700-12    C    0.70409988    0.38446994    0.30520896    0.06060000
opls_145-13    C    0.65302994    0.37044989    0.30510967    -0.18520000
opls_142-14    C    0.92165011    0.89447992    0.55505888    -0.08300000
opls_137-15    C    0.96090010    0.94650990    0.65751097    0.03950000
opls_234-16    C    0.90890984    0.77388972    0.38987070    0.42930000
opls_136-17    C    0.03278975    0.64823976    0.68063034    -0.19450000
opls_136-18    C    0.07487987    0.65149988    0.89332025    -0.12320000
opls_135-19    C    0.16800015    0.68166000    0.95955899    -0.34230000
opls_135-20    C    0.14134003    0.72281001    0.62057031    -0.34090000
opls_135-21    C    0.12340011    0.63207005    0.54981067    -0.31270000
opls_136-22    C    0.01440988    0.96103004    0.55162087    -0.20590000
opls_700-23    C    0.28030003    0.15064002    0.36906950    -0.20900000
opls_166-24    C    0.29843991    0.12406979    0.19535904    0.24000000
opls_145-25    C    0.34967004    0.14003016    0.19776957    -0.24930000
opls_700-26    C    0.38421978    0.18326981    0.35821057    -0.23600000
opls_166-27    C    0.36687995    0.21072991    0.52839067    0.21780000
opls_145-28    C    0.31478008    0.19354990    0.53377973    -0.25530000
opls_182-29    C    0.38773001    0.28288977    0.87117063    0.04660000
opls_136-30    C    0.37757985    0.31763995    0.66763103    -0.21890000
opls_136-31    C    0.36838004    0.35314983    0.86943893    -0.14910000
opls_234-32    C    0.43822002    0.19787998    0.35106904    0.42920000
opls_142-33    C    0.56213011    0.30627002    0.30429924    0.01300000
opls_700-34    C    0.61552983    0.31962979    0.30520896    0.06060000
opls_145-35    C    0.62954980    0.28257989    0.30510967    -0.18520000
opls_142-36    C    0.10552014    0.02717010    0.55505888    -0.08300000
opls_137-37    C    0.05348985    0.01438995    0.65751097    0.03950000
opls_234-38    C    0.22610998    0.13501992    0.38987070    0.42920000
opls_136-39    C    0.35175996    0.38454985    0.68063034    -0.19450000
opls_136-40    C    0.34849978    0.42337988    0.89332025    -0.12320000
opls_135-41    C    0.31834014    0.48634010    0.95955899    -0.34230000
opls_135-42    C    0.27718980    0.41852983    0.62057031    -0.34100000
opls_135-43    C    0.36792990    0.49133009    0.54981067    -0.31270000
opls_136-44    C    0.03897022    0.05338018    0.55162087    -0.20600000
opls_700-45    C    0.84936005    0.12966003    0.36906950    -0.20900000
opls_166-46    C    0.87592988    0.17436992    0.19535904    0.24000000
opls_145-47    C    0.85996998    0.20964007    0.19776957    -0.24930000
opls_700-48    C    0.81672986    0.20094990    0.35821057    -0.23600000
opls_166-49    C    0.78926996    0.15614997    0.52839067    0.21780000
opls_145-50    C    0.80645007    0.12122984    0.53377973    -0.25530000
opls_182-51    C    0.71710985    0.10483992    0.87117063    0.04660000
opls_136-52    C    0.68235985    0.05993982    0.66763103    -0.21890000
opls_136-53    C    0.64684984    0.01522993    0.86943893    -0.14910000
opls_234-54    C    0.80212005    0.24034004    0.35106904    0.42920000
opls_142-55    C    0.69373005    0.25585998    0.30429924    0.01300000
opls_700-56    C    0.68037010    0.29589989    0.30520896    0.06060000
opls_145-57    C    0.71742007    0.34696984    0.30510967    -0.18520000
opls_142-58    C    0.97283008    0.07834998    0.55505888    -0.08300000
opls_137-59    C    0.98561005    0.03910014    0.65751097    0.03950000
opls_234-60    C    0.86498000    0.09108999    0.38987070    0.42920000
opls_136-61    C    0.61545010    0.96721002    0.68063034    -0.19450000
opls_136-62    C    0.57661984    0.92511986    0.89332025    -0.12320000
opls_135-63    C    0.51366004    0.83199989    0.95955899    -0.34220000
opls_135-64    C    0.58146999    0.85865978    0.62057031    -0.34100000
opls_135-65    C    0.50866999    0.87659986    0.54981067    -0.31270000
opls_179-66    O    0.85064992    0.59739978    0.69416070    -0.25670000
opls_167-67    O    0.81542978    0.73233979    0.00764950    -0.43080000
opls_236-68    O    0.71567013    0.55058000    0.36588086    -0.39840000
opls_236-69    O    0.95316983    0.78607974    0.37555068    -0.39850000
opls_179-70    O    0.40259985    0.25325000    0.69416070    -0.25660000
opls_167-71    O    0.26765994    0.08309011    0.00764950    -0.43090000
opls_236-72    O    0.44942014    0.16509000    0.36588086    -0.39850000
opls_236-73    O    0.21391992    0.16708997    0.37555068    -0.39850000
opls_179-74    O    0.74675004    0.14934985    0.69416070    -0.25670000
opls_167-75    O    0.91690996    0.18457011    0.00764950    -0.43090000
opls_236-76    O    0.83491006    0.28433000    0.36588086    -0.39840000
opls_236-77    O    0.83291007    0.04682991    0.37555068    -0.39840000
opls_238-78    N    0.77158997    0.52464004    0.32208035    -0.29130000
opls_750-79    N    0.73375996    0.47383007    0.32265066    -0.19320000
opls_238-80    N    0.89589991    0.80984003    0.44090048    -0.29130000
opls_750-81    N    0.93297990    0.85984979    0.49976911    -0.19320000
opls_288-82    N    0.12603997    0.67215986    0.75051027    0.17290000
opls_238-83    N    0.47536003    0.24694996    0.32208035    -0.29140000
opls_750-84    N    0.52616992    0.25993007    0.32265066    -0.19320000
opls_238-85    N    0.19015979    0.08605986    0.44090048    -0.29130000
opls_750-86    N    0.14014992    0.07313002    0.49976911    -0.19320000
opls_288-87    N    0.32783991    0.45387989    0.75051027    0.17290000
opls_238-88    N    0.75304999    0.22841000    0.32208035    -0.29140000
opls_750-89    N    0.74006980    0.26623986    0.32265066    -0.19320000
opls_238-90    N    0.91393998    0.10410011    0.44090048    -0.29140000
opls_750-91    N    0.92686999    0.06701982    0.49976911    -0.19310000
opls_288-92    N    0.54611993    0.87395987    0.75051027    0.17300000
opls_140-93    H    0.90953987    0.97552991    0.65323944    0.11480000
opls_146-94    H    0.75634001    0.63712006    0.06344955    0.10810000
opls_185-95    H    0.88730008    0.58048988    0.02625029    0.05510000
opls_185-96    H    0.90383999    0.64467988    0.02211037    0.05290000
opls_140-97    H    0.95080990    0.65563976    0.51969984    0.12090000
opls_140-98    H    0.92950985    0.58938001    0.51721081    0.11100000
opls_140-99    H    0.97491996    0.59646976    0.99650889    0.10380000
opls_140-100    H    0.99217974    0.66149973    0.04029093    0.07990000
opls_168-101    H    0.84505001    0.76681986    0.96924036    0.35900000
opls_910-102    H    0.80892001    0.53396985    0.29130917    0.25180000
opls_144-103    H    0.78295002    0.44690007    0.29047102    0.11080000
opls_146-104    H    0.64232014    0.39905010    0.30462018    0.10790000
opls_910-105    H    0.85803990    0.79943989    0.45854999    0.24690000
opls_144-106    H    0.88259992    0.88475994    0.55939968    0.10220000
opls_140-107    H    0.04308008    0.68506006    0.57704918    0.12090000
opls_140-108    H    0.02458982    0.62030996    0.49537982    0.09560000
opls_140-109    H    0.05957981    0.61200995    0.96843916    0.05200000
opls_140-110    H    0.07637001    0.67415008    0.09030940    0.09790000
opls_140-111    H    0.29843003    0.50328976    0.83785962    0.15090000
opls_140-112    H    0.35331990    0.52052980    0.02852921    0.13380000
opls_140-113    H    0.29331994    0.46568988    0.14597091    0.11790000
opls_140-114    H    0.40444997    0.51133992    0.67461094    0.14250000
opls_140-115    H    0.36180977    0.52278975    0.48776957    0.13220000
opls_140-116    H    0.37583005    0.47456988    0.35948049    0.20580000
opls_140-117    H    0.27742019    0.39783008    0.41733087    0.10110000
opls_140-118    H    0.25458987    0.43651980    0.56284923    0.15190000
opls_140-119    H    0.25412981    0.38950982    0.79543985    0.15220000
opls_140-120    H    0.94249007    0.98449995    0.29751097    0.10020000
opls_146-121    H    0.91262998    0.69997974    0.66966059    0.11620000
opls_140-122    H    0.96022994    0.94567967    0.91272916    0.11330000
opls_140-123    H    0.02447015    0.93400999    0.65323944    0.11480000
opls_146-124    H    0.36288015    0.11922012    0.06344955    0.10810000
opls_185-125    H    0.41951008    0.30680988    0.02625029    0.05510000
opls_185-126    H    0.35531989    0.25915987    0.02211037    0.05290000
opls_140-127    H    0.34435999    0.29516983    0.51969984    0.12100000
opls_140-128    H    0.41061990    0.34012995    0.51721081    0.11110000
opls_140-129    H    0.40352977    0.37844977    0.99650889    0.10380000
opls_140-130    H    0.33849999    0.33068009    0.04029093    0.07990000
opls_168-131    H    0.23318007    0.07822993    0.96924036    0.35960000
opls_910-132    H    0.46602982    0.27494992    0.29130917    0.25190000
opls_144-133    H    0.55309994    0.33605011    0.29047102    0.11080000
opls_146-134    H    0.60095013    0.24327003    0.30462018    0.10790000
opls_910-135    H    0.20056002    0.05860013    0.45854999    0.24690000
opls_144-136    H    0.11523981    0.99783984    0.55939968    0.10220000
opls_140-137    H    0.31493990    0.35801976    0.57704918    0.12090000
opls_140-138    H    0.37968986    0.40427981    0.49537982    0.09560000
opls_140-139    H    0.38799019    0.44757010    0.96843916    0.05200000
opls_140-140    H    0.32584983    0.40221981    0.09030940    0.09790000
opls_140-141    H    0.49670991    0.79513982    0.83785962    0.15090000
opls_140-142    H    0.47947014    0.83278998    0.02852921    0.13380000
opls_140-143    H    0.53431017    0.82763005    0.14597091    0.11790000
opls_140-144    H    0.48865993    0.89310984    0.67461094    0.14250000
opls_140-145    H    0.47720999    0.83901986    0.48776957    0.13220000
opls_140-146    H    0.52542992    0.90125978    0.35948049    0.20580000
opls_140-147    H    0.60216993    0.87958988    0.41733087    0.10110000
opls_140-148    H    0.56347986    0.81806988    0.56284923    0.15190000
opls_140-149    H    0.61048989    0.86461993    0.79543985    0.15230000
opls_140-150    H    0.01549996    0.95798975    0.29751097    0.10020000
opls_146-151    H    0.30002004    0.21264997    0.66966059    0.11620000
opls_140-152    H    0.05432014    0.01455015    0.91272916    0.11330000
opls_140-153    H    0.06598998    0.09046009    0.65323944    0.11480000
opls_146-154    H    0.88077984    0.24365982    0.06344955    0.10810000
opls_185-155    H    0.69318999    0.11269987    0.02625029    0.05510000
opls_185-156    H    0.74083994    0.09615988    0.02211037    0.05300000
opls_140-157    H    0.70482992    0.04919003    0.51969984    0.12090000
opls_140-158    H    0.65986992    0.07049003    0.51721081    0.11100000
opls_140-159    H    0.62155009    0.02508010    0.99650889    0.10380000
opls_140-160    H    0.66931995    0.00782018    0.04029093    0.07990000
opls_168-161    H    0.92177006    0.15494984    0.96924036    0.35900000
opls_910-162    H    0.72504998    0.19107986    0.29130917    0.25180000
opls_144-163    H    0.66395004    0.21704983    0.29047102    0.11090000
opls_146-164    H    0.75673005    0.35767987    0.30462018    0.10790000
opls_910-165    H    0.94140008    0.14195998    0.45854999    0.24690000
opls_144-166    H    0.00216008    0.11739985    0.55939968    0.10220000
opls_140-167    H    0.64197983    0.95691980    0.57704918    0.12090000
opls_140-168    H    0.59571981    0.97540986    0.49537982    0.09570000
opls_140-169    H    0.55243000    0.94041995    0.96843916    0.05200000
opls_140-170    H    0.59777997    0.92362973    0.09030940    0.09780000
opls_140-171    H    0.20485988    0.70157004    0.83785962    0.15090000
opls_140-172    H    0.16720977    0.64667985    0.02852921    0.13380000
opls_140-173    H    0.17236989    0.70668007    0.14597091    0.11790000
opls_140-174    H    0.10688992    0.59554987    0.67461094    0.14260000
opls_140-175    H    0.16098006    0.63819001    0.48776957    0.13220000
opls_140-176    H    0.09873984    0.62416996    0.35948049    0.20580000
opls_140-177    H    0.12040987    0.72258004    0.41733087    0.10120000
opls_140-178    H    0.18193009    0.74540994    0.56284923    0.15190000
opls_140-179    H    0.13537979    0.74586988    0.79543985    0.15220000
opls_140-180    H    0.04201010    0.05750992    0.29751097    0.10020000
opls_146-181    H    0.78735012    0.08736991    0.66966059    0.11620000
opls_140-182    H    0.98545025    0.03977018    0.91272916    0.11330000
