#======================================================================
# Crystal Data Generated By AuToFF
#----------------------------------------------------------------------

data_AuToFF_phase_1

_cell_length_a                         61.0419
_cell_length_b                         3.5335
_cell_length_c                         59.1305
_cell_angle_alpha                      90.00
_cell_angle_beta                       61.07
_cell_angle_gamma                      90.00
_symmetry_space_group_name_H-M_alt     'P 1'
_symmetry_space_group_IT_number        1

loop_
_space_group_symop_operation_xyz
   'x, y, z'

loop_
   _atom_site_label
   _atom_site_type_symbol
   _atom_site_fract_x
   _atom_site_fract_y
   _atom_site_fract_z
   _atom_site_charge
opls_700-0    C    0.34093012    0.50000000    0.34984992    0.07180000
opls_145-1    C    0.31431994    0.50000000    0.36298002    -0.06150000
opls_700-2    C    0.29893993    0.50000000    0.35095002    0.07150000
opls_145-3    C    0.31247003    0.50000000    0.32346006    -0.06130000
opls_700-4    C    0.33892006    0.50000000    0.30803004    0.07610000
opls_145-5    C    0.35184001    0.50000000    0.32254005    -0.06110000
opls_700-6    C    0.35176995    0.50000000    0.28005003    0.07620000
opls_145-7    C    0.37844997    0.50000000    0.26482001    -0.08840000
opls_145-8    C    0.39117005    0.50000000    0.23765005    -0.15110000
opls_145-9    C    0.37804998    0.50000000    0.22366004    0.23970000
opls_145-10    C    0.35170013    0.50000000    0.23781990    -0.10780000
opls_145-11    C    0.33910003    0.50000000    0.26507992    -0.08860000
opls_700-12    C    0.27185996    0.50000000    0.36524998    0.07770000
opls_145-13    C    0.25631997    0.50000000    0.35331003    -0.08850000
opls_145-14    C    0.22997002    0.50000000    0.36740999    -0.15110000
opls_145-15    C    0.21732002    0.50000000    0.39449996    0.23980000
opls_145-16    C    0.23189991    0.50000000    0.40707006    -0.15020000
opls_145-17    C    0.25818999    0.50000000    0.39281995    -0.08840000
opls_700-18    C    0.35593002    0.50000000    0.36275007    0.07770000
opls_145-19    C    0.38270003    0.50000000    0.34916006    -0.08840000
opls_145-20    C    0.39743999    0.50000000    0.36147007    -0.15100000
opls_145-21    C    0.38628004    0.50000000    0.38860003    0.23970000
opls_145-22    C    0.36003007    0.50000000    0.40272994    -0.15020000
opls_145-23    C    0.34539007    0.50000000    0.39020004    -0.08860000
opls_700-24    C    0.14919000    0.50000000    0.44180005    0.06550000
opls_523-25    C    0.13290003    0.50000000    0.46867997    -0.08900000
opls_522-26    C    0.10680000    0.50000000    0.47873006    -0.10340000
opls_521-27    C    0.09516012    0.50000000    0.46282990    0.21940000
opls_522-28    C    0.11220991    0.50000000    0.43573008    -0.12080000
opls_523-29    C    0.13838009    0.50000000    0.42547999    -0.08900000
opls_521-30    C    0.05661000    0.50000000    0.45774002    0.07820000
opls_522-31    C    0.03045010    0.50000000    0.46806992    -0.10610000
opls_700-32    C    0.01335999    0.50000000    0.49497998    0.08080000
opls_522-33    C    0.02511003    0.50000000    0.51073000    -0.10450000
opls_521-34    C    0.05131003    0.50000000    0.50039005    0.07350000
opls_142-35    C    0.17526999    0.50000000    0.43213006    0.09120000
opls_700-36    C    0.56545007    0.50000000    0.58981998    0.06600000
opls_523-37    C    0.53920001    0.50000000    0.60039992    -0.08900000
opls_522-38    C    0.52805006    0.50000000    0.58443000    -0.10450000
opls_521-39    C    0.54211002    0.50000000    0.55690004    0.23560000
opls_522-40    C    0.56858999    0.50000000    0.54679990    -0.12110000
opls_523-41    C    0.57998002    0.50000000    0.56263996    -0.08910000
opls_521-42    C    0.54405998    0.50000000    0.51333001    0.07140000
opls_522-43    C    0.53248001    0.50000000    0.49765999    -0.12080000
opls_700-44    C    0.50603011    0.50000000    0.50788998    0.07630000
opls_522-45    C    0.49240997    0.50000000    0.53532005    -0.10290000
opls_521-46    C    0.50399006    0.50000000    0.55091992    0.07800000
opls_142-47    C    0.57596007    0.50000000    0.60645000    0.01470000
opls_700-48    C    0.40270004    0.50000000    0.15228004    0.06990000
opls_523-49    C    0.39453007    0.50000000    0.13369001    -0.08900000
opls_522-50    C    0.41174002    0.50000000    0.10708005    -0.10450000
opls_521-51    C    0.43817996    0.50000000    0.09709991    0.21940000
opls_522-52    C    0.44585993    0.50000000    0.11637999    -0.12110000
opls_523-53    C    0.42877009    0.50000000    0.14306995    -0.08910000
opls_521-54    C    0.48192997    0.50000000    0.05957995    0.07800000
opls_522-55    C    0.49896997    0.50000000    0.03287994    -0.10340000
opls_700-56    C    0.49133011    0.50000000    0.01364991    0.08050000
opls_522-57    C    0.46496000    0.50000000    0.02379005    -0.10290000
opls_521-58    C    0.44793994    0.50000000    0.05048001    0.07160000
opls_142-59    C    0.38511002    0.50000000    0.17889000    0.01470000
opls_700-60    C    0.65907013    0.50000000    0.65014988    0.07180000
opls_145-61    C    0.68568006    0.50000000    0.63701998    -0.06150000
opls_700-62    C    0.70106007    0.50000000    0.64904998    0.07150000
opls_145-63    C    0.68752997    0.50000000    0.67653994    -0.06130000
opls_700-64    C    0.66108010    0.50000000    0.69196996    0.07610000
opls_145-65    C    0.64815999    0.50000000    0.67745995    -0.06120000
opls_700-66    C    0.64823005    0.50000000    0.71994997    0.07640000
opls_145-67    C    0.62156007    0.50000000    0.73519004    -0.08840000
opls_145-68    C    0.60883011    0.50000000    0.76234995    -0.15110000
opls_145-69    C    0.62195002    0.50000000    0.77633996    0.23980000
opls_145-70    C    0.64830012    0.50000000    0.76217990    -0.10780000
opls_145-71    C    0.66090006    0.50000000    0.73491989    -0.08860000
opls_700-72    C    0.72814004    0.50000000    0.63475002    0.07560000
opls_145-73    C    0.74369002    0.50000000    0.64668997    -0.08860000
opls_145-74    C    0.77003998    0.50000000    0.63259001    -0.15110000
opls_145-75    C    0.78267998    0.50000000    0.60550004    0.23980000
opls_145-76    C    0.76811008    0.50000000    0.59292994    -0.15010000
opls_145-77    C    0.74182000    0.50000000    0.60718005    -0.08840000
opls_700-78    C    0.64406998    0.50000000    0.63724993    0.07770000
opls_145-79    C    0.61730013    0.50000000    0.65083994    -0.08840000
opls_145-80    C    0.60256001    0.50000000    0.63852993    -0.15100000
opls_145-81    C    0.61371996    0.50000000    0.61139997    0.23970000
opls_145-82    C    0.63996993    0.50000000    0.59727006    -0.15020000
opls_145-83    C    0.65461009    0.50000000    0.60979996    -0.08860000
opls_700-84    C    0.85081000    0.50000000    0.55819995    0.06550000
opls_523-85    C    0.86709997    0.50000000    0.53132003    -0.08900000
opls_522-86    C    0.89320000    0.50000000    0.52126994    -0.10340000
opls_521-87    C    0.90484013    0.50000000    0.53716991    0.21940000
opls_522-88    C    0.88779009    0.50000000    0.56426992    -0.12080000
opls_523-89    C    0.86162008    0.50000000    0.57452001    -0.08890000
opls_521-90    C    0.94339000    0.50000000    0.54225998    0.07820000
opls_522-91    C    0.96955015    0.50000000    0.53192989    -0.10610000
opls_700-92    C    0.98664001    0.50000000    0.50502002    0.08080000
opls_522-93    C    0.97488997    0.50000000    0.48927000    -0.10430000
opls_521-94    C    0.94868997    0.50000000    0.49960995    0.07350000
opls_142-95    C    0.82473001    0.50000000    0.56786994    0.09120000
opls_700-96    C    0.43455992    0.50000000    0.41018002    0.06600000
opls_523-97    C    0.46079999    0.50000000    0.39960008    -0.08900000
opls_522-98    C    0.47194994    0.50000000    0.41557000    -0.10440000
opls_521-99    C    0.45788998    0.50000000    0.44309996    0.23560000
opls_522-100    C    0.43141010    0.50000000    0.45319991    -0.12110000
opls_523-101    C    0.42002998    0.50000000    0.43736004    -0.08910000
opls_521-102    C    0.45594002    0.50000000    0.48666999    0.07140000
opls_522-103    C    0.46751999    0.50000000    0.50234001    -0.12070000
opls_700-104    C    0.49397006    0.50000000    0.49211002    0.07630000
opls_522-105    C    0.50758004    0.50000000    0.46467995    -0.10290000
opls_521-106    C    0.49601003    0.50000000    0.44907989    0.07830000
opls_142-107    C    0.42404009    0.50000000    0.39355000    0.01470000
opls_700-108    C    0.59730013    0.50000000    0.84771996    0.06990000
opls_523-109    C    0.60546997    0.50000000    0.86632004    -0.08900000
opls_522-110    C    0.58825998    0.50000000    0.89291995    -0.10340000
opls_521-111    C    0.56183012    0.50000000    0.90289990    0.21950000
opls_522-112    C    0.55414007    0.50000000    0.88362001    -0.12110000
opls_523-113    C    0.57124007    0.50000000    0.85693005    -0.08910000
opls_521-114    C    0.51807003    0.50000000    0.94042005    0.07830000
opls_522-115    C    0.50102999    0.50000000    0.96711001    -0.10340000
opls_700-116    C    0.50867014    0.50000000    0.98634990    0.07840000
opls_522-117    C    0.53504999    0.50000000    0.97620995    -0.10290000
opls_521-118    C    0.55206006    0.50000000    0.94951999    0.07160000
opls_142-119    C    0.61488998    0.50000000    0.82111000    0.01340000
opls_146-120    H    0.30537002    0.50000000    0.38494997    0.04550000
opls_146-121    H    0.30197010    0.50000000    0.31192996    0.04550000
opls_146-122    H    0.37316999    0.50000000    0.31218001    0.04550000
opls_146-123    H    0.38945993    0.50000000    0.27582006    0.04550000
opls_146-124    H    0.41251009    0.50000000    0.22662991    0.04490000
opls_146-125    H    0.34026005    0.50000000    0.22725000    0.04490000
opls_146-126    H    0.31776995    0.50000000    0.27623996    0.04550000
opls_146-127    H    0.26625002    0.50000000    0.33127999    0.04490000
opls_146-128    H    0.21857993    0.50000000    0.35679005    0.04490000
opls_146-129    H    0.22240009    0.50000000    0.42906995    0.04550000
opls_146-130    H    0.26970998    0.50000000    0.40328995    0.04550000
opls_146-131    H    0.39203006    0.50000000    0.32715997    0.04550000
opls_146-132    H    0.41871993    0.50000000    0.34947002    0.04560000
opls_146-133    H    0.35015011    0.50000000    0.42474994    0.04550000
opls_146-134    H    0.32409011    0.50000000    0.40207989    0.04490000
opls_526-135    H    0.14116006    0.50000000    0.48233007    0.04550000
opls_525-136    H    0.09389005    0.50000000    0.50051991    0.04550000
opls_525-137    H    0.10479008    0.50000000    0.42135997    0.04550000
opls_526-138    H    0.15116012    0.50000000    0.40364995    0.04490000
opls_524-139    H    0.06934007    0.50000000    0.43590998    0.02680000
opls_525-140    H    0.02198002    0.50000000    0.45459991    0.04490000
opls_525-141    H    0.01322999    0.50000000    0.53268004    0.04550000
opls_524-142    H    0.05977995    0.50000000    0.51386006    0.02680000
opls_144-143    H    0.18215000    0.50000000    0.44693998    0.02680000
opls_526-144    H    0.52699010    0.50000000    0.62230996    0.04550000
opls_525-145    H    0.50679004    0.50000000    0.59339004    0.04550000
opls_525-146    H    0.58157002    0.50000000    0.52501991    0.04550000
opls_526-147    H    0.60125002    0.50000000    0.55351007    0.04550000
opls_524-148    H    0.56535001    0.50000000    0.50403992    0.02680000
opls_525-149    H    0.54442005    0.50000000    0.47572000    0.04550000
opls_525-150    H    0.47108000    0.50000000    0.54569999    0.04550000
opls_524-151    H    0.49208003    0.50000000    0.57286996    0.02680000
opls_144-152    H    0.56228003    0.50000000    0.62808004    0.02680000
opls_526-153    H    0.37357001    0.50000000    0.14054009    0.04550000
opls_525-154    H    0.40472002    0.50000000    0.09238009    0.04550000
opls_525-155    H    0.46663001    0.50000000    0.11044006    0.04550000
opls_526-156    H    0.43592009    0.50000000    0.15765996    0.04550000
opls_524-157    H    0.48913001    0.50000000    0.07412996    0.02680000
opls_525-158    H    0.51997007    0.50000000    0.02583991    0.04490000
opls_525-159    H    0.45670000    0.50000000    0.01013009    0.04490000
opls_524-160    H    0.42694006    0.50000000    0.05754999    0.02680000
opls_144-161    H    0.36444004    0.50000000    0.18446007    0.02680000
opls_146-162    H    0.69462998    0.50000000    0.61505003    0.04550000
opls_146-163    H    0.69803007    0.50000000    0.68807004    0.04550000
opls_146-164    H    0.62683001    0.50000000    0.68781999    0.04550000
opls_146-165    H    0.61054007    0.50000000    0.72417994    0.04550000
opls_146-166    H    0.58749001    0.50000000    0.77336990    0.04490000
opls_146-167    H    0.65974011    0.50000000    0.77275000    0.04500000
opls_146-168    H    0.68223005    0.50000000    0.72376004    0.04550000
opls_146-169    H    0.73374998    0.50000000    0.66872001    0.04490000
opls_146-170    H    0.78142007    0.50000000    0.64320995    0.04550000
opls_146-171    H    0.77760007    0.50000000    0.57093005    0.04550000
opls_146-172    H    0.73029002    0.50000000    0.59671005    0.04490000
opls_146-173    H    0.60796994    0.50000000    0.67284003    0.04550000
opls_146-174    H    0.58128007    0.50000000    0.65052998    0.04550000
opls_146-175    H    0.64985005    0.50000000    0.57525006    0.04550000
opls_146-176    H    0.67590998    0.50000000    0.59791991    0.04490000
opls_526-177    H    0.85884011    0.50000000    0.51766993    0.04550000
opls_525-178    H    0.90611004    0.50000000    0.49947990    0.04550000
opls_525-179    H    0.89521008    0.50000000    0.57864003    0.04550000
opls_526-180    H    0.84884004    0.50000000    0.59635005    0.04490000
opls_524-181    H    0.93066009    0.50000000    0.56409002    0.02680000
opls_525-182    H    0.97802007    0.50000000    0.54539989    0.04490000
opls_525-183    H    0.98677001    0.50000000    0.46731996    0.04550000
opls_524-184    H    0.94022005    0.50000000    0.48613994    0.02690000
opls_144-185    H    0.81785000    0.50000000    0.55306002    0.02680000
opls_526-186    H    0.47302006    0.50000000    0.37769004    0.04550000
opls_525-187    H    0.49320996    0.50000000    0.40660996    0.04550000
opls_525-188    H    0.41843007    0.50000000    0.47497990    0.04550000
opls_526-189    H    0.39874998    0.50000000    0.44648993    0.04490000
opls_524-190    H    0.43465008    0.50000000    0.49595989    0.02680000
opls_525-191    H    0.45558994    0.50000000    0.52428000    0.04550000
opls_525-192    H    0.52892000    0.50000000    0.45430001    0.04550000
opls_524-193    H    0.50791997    0.50000000    0.42713004    0.02680000
opls_144-194    H    0.43771997    0.50000000    0.37191996    0.02680000
opls_526-195    H    0.62643015    0.50000000    0.85945991    0.04550000
opls_525-196    H    0.59528015    0.50000000    0.90761991    0.04550000
opls_525-197    H    0.53336999    0.50000000    0.88955994    0.04550000
opls_526-198    H    0.56408008    0.50000000    0.84234004    0.04490000
opls_524-199    H    0.51086999    0.50000000    0.92587004    0.02680000
opls_525-200    H    0.48003002    0.50000000    0.97415990    0.04550000
opls_525-201    H    0.54330000    0.50000000    0.98986991    0.04550000
opls_524-202    H    0.57306010    0.50000000    0.94245001    0.02680000
opls_144-203    H    0.63557011    0.50000000    0.81553993    0.02680000
opls_239-204    N    0.06838997    0.50000000    0.47339999    -0.04950000
opls_750-205    N    0.19194996    0.50000000    0.40658001    -0.28020000
opls_239-206    N    0.53038993    0.50000000    0.54079002    -0.04910000
opls_750-207    N    0.60094003    0.50000000    0.59791006    -0.27210000
opls_239-208    N    0.45554010    0.50000000    0.06976994    -0.05400000
opls_750-209    N    0.39198007    0.50000000    0.19749993    -0.27130000
opls_239-210    N    0.93161003    0.50000000    0.52660001    -0.04950000
opls_750-211    N    0.80806004    0.50000000    0.59341999    -0.27140000
opls_239-212    N    0.46961007    0.50000000    0.45920998    -0.04920000
opls_750-213    N    0.39905997    0.50000000    0.40208994    -0.27210000
opls_239-214    N    0.54446007    0.50000000    0.93023006    -0.05390000
opls_750-215    N    0.60801993    0.50000000    0.80250007    -0.27140000
opls_401-216    Cl    0.70644997    0.32594029    0.41015993    -0.06420000
opls_401-217    Cl    0.52654000    0.61679921    0.12006000    -0.06420000
opls_401-218    Cl    0.09658001    0.48744871    0.35352994    -0.06420000
opls_401-219    Cl    0.29355003    0.67405971    0.58984007    -0.06420000
opls_401-220    Cl    0.47346004    0.38320928    0.87995004    -0.06420000
opls_401-221    Cl    0.90341999    0.51255978    0.64647006    -0.06420000
