#======================================================================
# Crystal Data Generated By AuToFF
#----------------------------------------------------------------------

data_AuToFF_phase_1

_cell_length_a                         22.5866
_cell_length_b                         22.5866
_cell_length_c                         5.3421
_cell_angle_alpha                      90.00
_cell_angle_beta                       90.00
_cell_angle_gamma                      120.00
_symmetry_space_group_name_H-M_alt     'P 1'
_symmetry_space_group_IT_number        1

loop_
_space_group_symop_operation_xyz
   'x, y, z'

loop_
   _atom_site_label
   _atom_site_type_symbol
   _atom_site_fract_x
   _atom_site_fract_y
   _atom_site_fract_z
   _atom_site_charge
opls_910-0    H    0.50352980    0.66241986    0.79067034    0.27200000
opls_144-1    H    0.52025015    0.35435010    0.95150035    0.03020000
opls_910-2    H    0.65872988    0.49546000    0.95387956    0.27200000
opls_144-3    H    0.36206990    0.52999018    0.81285075    0.03020000
opls_146-4    H    0.46678994    0.40551988    0.05089946    0.04370000
opls_146-5    H    0.65822994    0.59132019    0.83691994    0.04370000
opls_146-6    H    0.59237985    0.65474012    0.78394077    0.04370000
opls_910-7    H    0.33758011    0.84110995    0.79067034    0.27200000
opls_144-8    H    0.64565004    0.16590007    0.95150035    0.03020000
opls_910-9    H    0.50454006    0.16326978    0.95387956    0.27200000
opls_144-10    H    0.47001008    0.83208005    0.81285075    0.03020000
opls_146-11    H    0.59448003    0.06127020    0.05089946    0.04370000
opls_146-12    H    0.40868019    0.06691012    0.83691994    0.04370000
opls_146-13    H    0.34525994    0.93763985    0.78394077    0.04370000
opls_910-14    H    0.15889009    0.49647019    0.79067034    0.27200000
opls_144-15    H    0.83409981    0.47974982    0.95150035    0.03020000
opls_910-16    H    0.83673005    0.34127022    0.95387956    0.27200000
opls_144-17    H    0.16792002    0.63792977    0.81285075    0.03020000
opls_146-18    H    0.93873003    0.53320992    0.05089946    0.04370000
opls_146-19    H    0.93309013    0.34177020    0.83691994    0.04370000
opls_146-20    H    0.06236021    0.40762002    0.78394077    0.04370000
opls_916-21    C    0.49229004    0.56572022    0.87501919    0.23380000
opls_145-22    C    0.45710012    0.49617981    0.95966942    -0.13870000
opls_145-23    C    0.49411008    0.46153001    0.98555063    -0.14050000
opls_700-24    C    0.74085992    0.37738011    0.95553060    0.00200000
opls_261-25    C    0.71149005    0.30283985    0.95424084    -0.08810000
opls_142-26    C    0.57851987    0.39047993    0.95127010    0.04960000
opls_916-27    C    0.56478015    0.49315996    0.93373954    0.21590000
opls_145-28    C    0.60001012    0.56310987    0.86734992    -0.12670000
opls_145-29    C    0.56395988    0.59787982    0.83878999    -0.10610000
opls_700-30    C    0.25943986    0.63114009    0.71435952    -0.10210000
opls_231-31    C    0.29750979    0.70608985    0.69445911    0.18100000
opls_142-32    C    0.39711019    0.58768022    0.78003033    0.05010000
opls_916-33    C    0.43428026    0.92657014    0.87501919    0.23380000
opls_145-34    C    0.50381979    0.96091985    0.95966942    -0.13870000
opls_145-35    C    0.53846988    0.03257983    0.98555063    -0.14050000
opls_700-36    C    0.62262009    0.36348021    0.95553060    0.00200000
opls_261-37    C    0.69716021    0.40865016    0.95424084    -0.08810000
opls_142-38    C    0.60951991    0.18804002    0.95127010    0.04960000
opls_916-39    C    0.50684022    0.07162010    0.93373954    0.21590000
opls_145-40    C    0.43689026    0.03690025    0.86734992    -0.12670000
opls_145-41    C    0.40211976    0.96607972    0.83878999    -0.10610000
opls_700-42    C    0.36885997    0.62830020    0.71435952    -0.10210000
opls_231-43    C    0.29390976    0.59141988    0.69445911    0.18100000
opls_142-44    C    0.41231990    0.80942989    0.78003033    0.05010000
opls_916-45    C    0.07342996    0.50771015    0.87501919    0.23380000
opls_145-46    C    0.03907983    0.54289982    0.95966942    -0.13870000
opls_145-47    C    0.96742004    0.50589017    0.98555063    -0.14050000
opls_700-48    C    0.63652024    0.25914020    0.95553060    0.00200000
opls_261-49    C    0.59135018    0.28851000    0.95424084    -0.08810000
opls_142-50    C    0.81196022    0.42148005    0.95127010    0.04960000
opls_916-51    C    0.92838007    0.43521993    0.93373954    0.21590000
opls_145-52    C    0.96310005    0.39998988    0.86734992    -0.12670000
opls_145-53    C    0.03392011    0.43603995    0.83878999    -0.10610000
opls_700-54    C    0.37169998    0.74056022    0.71435952    -0.10210000
opls_231-55    C    0.40857976    0.70248975    0.69445911    0.18100000
opls_142-56    C    0.19056992    0.60288990    0.78003033    0.05010000
opls_238-57    N    0.46349977    0.60731973    0.81263922    -0.25810000
opls_238-58    N    0.60235006    0.45871976    0.94679995    -0.24270000
opls_238-59    N    0.39268010    0.85618006    0.81263922    -0.25810000
opls_238-60    N    0.54127996    0.14362976    0.94679995    -0.24270000
opls_238-61    N    0.14382014    0.53650021    0.81263922    -0.25810000
opls_238-62    N    0.85637016    0.39764997    0.94679995    -0.24270000
opls_474-63    S    0.36626009    0.44333013    0.04387975    1.31510000
opls_474-64    S    0.55667020    0.92293016    0.04387975    1.31500000
opls_474-65    S    0.07706996    0.63374022    0.04387975    1.31520000
opls_272-66    O    0.25962974    0.52578989    0.66501937    -0.44580000
opls_272-67    O    0.35866981    0.38084984    0.15437000    -0.49310000
opls_180-68    O    0.35188004    0.48627980    0.21984051    -0.56280000
opls_180-69    O    0.32792999    0.43209988    0.80560079    -0.61250000
opls_272-70    O    0.47421020    0.73384007    0.66501937    -0.44580000
opls_272-71    O    0.61915014    0.97782018    0.15437000    -0.49320000
opls_180-72    O    0.51372012    0.86560003    0.21984051    -0.56280000
opls_180-73    O    0.56789972    0.89582972    0.80560079    -0.61250000
opls_272-74    O    0.26616007    0.74037004    0.66501937    -0.44590000
opls_272-75    O    0.02218005    0.64132998    0.15437000    -0.49230000
opls_180-76    O    0.13440029    0.64812017    0.21984051    -0.56280000
opls_180-77    O    0.10417003    0.67206988    0.80560079    -0.61250000
opls_404-78    Li    0.29709994    0.46695009    0.16930046    0.53400000
opls_404-79    Li    0.53304989    0.83015014    0.16930046    0.53400000
opls_404-80    Li    0.16984973    0.70289976    0.16930046    0.53400000
