#======================================================================
# Crystal Data Generated By AuToFF
#----------------------------------------------------------------------

data_AuToFF_phase_1

_cell_length_a                         45.0200
_cell_length_b                         45.0200
_cell_length_c                         3.7100
_cell_angle_alpha                      90.00
_cell_angle_beta                       90.00
_cell_angle_gamma                      120.00
_symmetry_space_group_name_H-M_alt     'P 1'
_symmetry_space_group_IT_number        1

loop_
_space_group_symop_operation_xyz
   'x, y, z'

loop_
   _atom_site_label
   _atom_site_type_symbol
   _atom_site_fract_x
   _atom_site_fract_y
   _atom_site_fract_z
   _atom_site_charge
opls_145-0    C    0.98086000    0.51693014    0.89523989    -0.22350000
opls_700-1    C    0.96274998    0.48090999    0.89277898    -0.02330000
opls_166-2    C    0.98145006    0.46365001    0.86180054    0.35240000
opls_700-3    C    0.92464988    0.46179998    0.92943935    0.06420000
opls_145-4    C    0.90489006    0.47592005    0.80143127    -0.13300000
opls_145-5    C    0.86938012    0.45865007    0.84987871    -0.04100000
opls_145-6    C    0.85277006    0.42630999    0.01416981    -0.22720000
opls_145-7    C    0.87203994    0.41174004    0.13749057    -0.04100000
opls_145-8    C    0.90770005    0.42969997    0.10359030    -0.13250000
opls_145-9    C    0.27009988    0.60377994    0.07501887    -0.24090000
opls_700-10    C    0.30184012    0.63486016    0.11701887    0.02730000
opls_700-11    C    0.30163010    0.66658006    0.13004043    0.02920000
opls_145-12    C    0.26960007    0.66552000    0.15698113    -0.24020000
opls_166-13    C    0.23953010    0.63442003    0.13149057    0.17190000
opls_166-14    C    0.23982017    0.60455017    0.07823989    0.17190000
opls_145-15    C    0.48307011    0.46393010    0.89523989    -0.22350000
opls_700-16    C    0.51908993    0.48184001    0.89277898    -0.02330000
opls_166-17    C    0.53635009    0.51780014    0.86180054    0.35240000
opls_700-18    C    0.53820001    0.46285003    0.92943935    0.06420000
opls_145-19    C    0.52408007    0.42897001    0.80143127    -0.13300000
opls_145-20    C    0.54136000    0.41074000    0.84987871    -0.04100000
opls_145-21    C    0.57368993    0.42647004    0.01416981    -0.24430000
opls_145-22    C    0.58825998    0.46030005    0.13749057    -0.04560000
opls_145-23    C    0.57030017    0.47800016    0.10359030    -0.13250000
opls_145-24    C    0.39621996    0.66631998    0.07501887    -0.24020000
opls_700-25    C    0.36515002    0.66698018    0.11701887    0.02730000
opls_700-26    C    0.33341992    0.63504996    0.13004043    0.02730000
opls_145-27    C    0.33447993    0.60407002    0.15698113    -0.24020000
opls_166-28    C    0.36558002    0.60510007    0.13149057    0.17190000
opls_166-29    C    0.39544998    0.63527003    0.07823989    0.17190000
opls_145-30    C    0.53607001    0.01914002    0.89523989    -0.22350000
opls_700-31    C    0.51816009    0.03725000    0.89277898    -0.02260000
opls_166-32    C    0.48219997    0.01855010    0.86180054    0.35240000
opls_700-33    C    0.53715001    0.07535999    0.92943935    0.06760000
opls_145-34    C    0.57103986    0.09510994    0.80143127    -0.13300000
opls_145-35    C    0.58925999    0.13061993    0.84987871    -0.03580000
opls_145-36    C    0.57353991    0.14722998    0.01416981    -0.24430000
opls_145-37    C    0.53969986    0.12795991    0.13749057    -0.04100000
opls_145-38    C    0.52200013    0.09230013    0.10359030    -0.13370000
opls_145-39    C    0.33367994    0.72990008    0.07501887    -0.24090000
opls_700-40    C    0.33302011    0.69816017    0.11701887    0.02730000
opls_700-41    C    0.36494998    0.69836998    0.13004043    0.02730000
opls_145-42    C    0.39592988    0.73039997    0.15698113    -0.24010000
opls_166-43    C    0.39490011    0.76047015    0.13149057    0.17190000
opls_166-44    C    0.36472997    0.76018006    0.07823989    0.17190000
opls_145-45    C    0.01914012    0.48307012    0.89523989    -0.22350000
opls_700-46    C    0.03725002    0.51909001    0.89277898    -0.02260000
opls_166-47    C    0.01854994    0.53634999    0.86180054    0.35240000
opls_700-48    C    0.07536012    0.53820002    0.92943935    0.06420000
opls_145-49    C    0.09510994    0.52407995    0.80143127    -0.13160000
opls_145-50    C    0.13061999    0.54135993    0.84987871    -0.04100000
opls_145-51    C    0.14722994    0.57369001    0.01416981    -0.24430000
opls_145-52    C    0.12796006    0.58825996    0.13749057    -0.04100000
opls_145-53    C    0.09229995    0.57030003    0.10359030    -0.13250000
opls_145-54    C    0.72990012    0.39622006    0.07501887    -0.24140000
opls_700-55    C    0.69816012    0.36515010    0.11701887    0.02730000
opls_700-56    C    0.69836990    0.33341994    0.13004043    0.02730000
opls_145-57    C    0.73039993    0.33448000    0.15698113    -0.24020000
opls_166-58    C    0.76046990    0.36557997    0.13149057    0.17190000
opls_166-59    C    0.76017995    0.39545009    0.07823989    0.17190000
opls_145-60    C    0.51693002    0.53607016    0.89523989    -0.22350000
opls_700-61    C    0.48091007    0.51815999    0.89277898    -0.02330000
opls_166-62    C    0.46365004    0.48220012    0.86180054    0.35240000
opls_700-63    C    0.46179999    0.53714997    0.92943935    0.06760000
opls_145-64    C    0.47592004    0.57103999    0.80143127    -0.13300000
opls_145-65    C    0.45864000    0.58926000    0.84987871    -0.04100000
opls_145-66    C    0.42630996    0.57353997    0.01416981    -0.24430000
opls_145-67    C    0.41174002    0.53969995    0.13749057    -0.04100000
opls_145-68    C    0.42969996    0.52200010    0.10359030    -0.13250000
opls_145-69    C    0.60378004    0.33368002    0.07501887    -0.24090000
opls_700-70    C    0.63486011    0.33302008    0.11701887    0.02730000
opls_700-71    C    0.66658008    0.36495004    0.13004043    0.03020000
opls_145-72    C    0.66552007    0.39592998    0.15698113    -0.24020000
opls_166-73    C    0.63441998    0.39489993    0.13149057    0.17190000
opls_166-74    C    0.60455002    0.36472997    0.07823989    0.17190000
opls_145-75    C    0.46392999    0.98085998    0.89523989    -0.22350000
opls_700-76    C    0.48183991    0.96275000    0.89277898    -0.02330000
opls_166-77    C    0.51780015    0.98145015    0.86180054    0.35240000
opls_700-78    C    0.46285011    0.92465001    0.92943935    0.06420000
opls_145-79    C    0.42897013    0.90489006    0.80143127    -0.13300000
opls_145-80    C    0.41074001    0.86938007    0.84987871    -0.03580000
opls_145-81    C    0.42647009    0.85277002    0.01416981    -0.24430000
opls_145-82    C    0.46030014    0.87204009    0.13749057    -0.04560000
opls_145-83    C    0.47800000    0.90770012    0.10359030    -0.13250000
opls_145-84    C    0.66632006    0.27009992    0.07501887    -0.24090000
opls_700-85    C    0.66698001    0.30184008    0.11701887    0.02730000
opls_700-86    C    0.63505002    0.30163002    0.13004043    0.03020000
opls_145-87    C    0.60407012    0.26960003    0.15698113    -0.24010000
opls_166-88    C    0.60510002    0.23953011    0.13149057    0.17180000
opls_166-89    C    0.63527003    0.23981994    0.07823989    0.17190000
opls_146-90    H    0.91665004    0.49999000    0.65649057    0.11800000
opls_146-91    H    0.85467998    0.47004011    0.74960916    0.11040000
opls_146-92    H    0.85955002    0.38692013    0.27050943    0.10960000
opls_146-93    H    0.92213004    0.41877007    0.22192992    0.11050000
opls_146-94    H    0.26784004    0.57915009    0.02764960    0.10840000
opls_146-95    H    0.26690006    0.68772016    0.19794879    0.10020000
opls_146-96    H    0.53127006    0.56358010    0.92770889    0.11930000
opls_168-97    H    0.58081008    0.56180008    0.76357951    0.29690000
opls_146-98    H    0.50000990    0.41665996    0.65649057    0.11810000
opls_146-99    H    0.52995992    0.38463997    0.74960916    0.11140000
opls_146-100    H    0.61308005    0.47263011    0.27050943    0.10960000
opls_146-101    H    0.58122996    0.50335997    0.22192992    0.11050000
opls_146-102    H    0.42085020    0.68869019    0.02764960    0.10840000
opls_146-103    H    0.31227996    0.57918010    0.19794879    0.10600000
opls_146-104    H    0.43642006    0.96770019    0.92770889    0.11930000
opls_168-105    H    0.43820002    0.01900998    0.76357951    0.29690000
opls_146-106    H    0.58334006    0.08335005    0.65649057    0.11760000
opls_146-107    H    0.61536987    0.14531992    0.74960916    0.10980000
opls_146-108    H    0.52737006    0.14045002    0.27050943    0.10960000
opls_146-109    H    0.49664000    0.07786996    0.22192992    0.11050000
opls_146-110    H    0.31130989    0.73215998    0.02764960    0.10840000
opls_146-111    H    0.42082010    0.73310000    0.19794879    0.09010000
opls_146-112    H    0.03229991    0.46872998    0.92770889    0.12080000
opls_168-113    H    0.98098990    0.41918993    0.76357951    0.32750000
opls_146-114    H    0.08335007    0.50002001    0.65649057    0.11750000
opls_146-115    H    0.14532014    0.52996015    0.74960916    0.11140000
opls_146-116    H    0.14045010    0.61308013    0.27050943    0.10960000
opls_146-117    H    0.07786996    0.58122993    0.22192992    0.11050000
opls_146-118    H    0.73215996    0.42084991    0.02764960    0.10840000
opls_146-119    H    0.73310007    0.31228010    0.19794879    0.10020000
opls_146-120    H    0.46873007    0.43642016    0.92770889    0.11930000
opls_168-121    H    0.41918992    0.43819992    0.76357951    0.29690000
opls_146-122    H    0.49999010    0.58334004    0.65649057    0.11810000
opls_146-123    H    0.47003997    0.61537004    0.74960916    0.10980000
opls_146-124    H    0.38692008    0.52737015    0.27050943    0.10960000
opls_146-125    H    0.41877004    0.49664003    0.22192992    0.11050000
opls_146-126    H    0.57914992    0.31131006    0.02764960    0.10840000
opls_146-127    H    0.68772016    0.42082016    0.19794879    0.10590000
opls_146-128    H    0.56358007    0.03230007    0.92770889    0.11590000
opls_168-129    H    0.56179998    0.98099002    0.76357951    0.29600000
opls_146-130    H    0.41666007    0.91665021    0.65649057    0.11810000
opls_146-131    H    0.38464013    0.85468008    0.74960916    0.11140000
opls_146-132    H    0.47262994    0.85954998    0.27050943    0.10960000
opls_146-133    H    0.50336000    0.92213004    0.22192992    0.11050000
opls_146-134    H    0.68869011    0.26784002    0.02764960    0.10840000
opls_146-135    H    0.57917990    0.26690000    0.19794879    0.09010000
opls_146-136    H    0.96770009    0.53127002    0.92770889    0.11760000
opls_168-137    H    0.01901010    0.58081007    0.76357951    0.29470000
opls_167-138    O    0.36901016    0.79246013    0.02570889    -0.35950000
opls_167-139    O    0.42318007    0.79307005    0.13322102    -0.35950000
opls_167-140    O    0.57147993    0.53624996    0.78988949    -0.41740000
opls_167-141    O    0.20754004    0.57655009    0.02570889    -0.35950000
opls_167-142    O    0.20694007    0.63012004    0.13322102    -0.35960000
opls_167-143    O    0.46375001    0.03522991    0.78988949    -0.41740000
opls_167-144    O    0.42344993    0.63099004    0.02570889    -0.35950000
opls_167-145    O    0.36988010    0.57682017    0.13322102    -0.35950000
opls_167-146    O    0.96478006    0.42852013    0.78988949    -0.41740000
opls_167-147    O    0.63098997    0.20754013    0.02570889    -0.35950000
opls_167-148    O    0.57682004    0.20693995    0.13322102    -0.35950000
opls_167-149    O    0.42852007    0.46375004    0.78988949    -0.41740000
opls_167-150    O    0.79245996    0.42344991    0.02570889    -0.35950000
opls_167-151    O    0.79306992    0.36987996    0.13322102    -0.35950000
opls_167-152    O    0.53625011    0.96478009    0.78988949    -0.41740000
opls_167-153    O    0.57655007    0.36900996    0.02570889    -0.35950000
opls_167-154    O    0.63012003    0.42318009    0.13322102    -0.35950000
opls_167-155    O    0.03522007    0.57148013    0.78988949    -0.41740000
MOF2_B_2-156    B    0.40631012    0.81302006    0.06098922    0.55930000
MOF2_B_2-157    B    0.18698005    0.59329017    0.06098922    0.55930000
MOF2_B_2-158    B    0.40670996    0.59369003    0.06098922    0.55930000
MOF2_B_2-159    B    0.59368988    0.18697994    0.06098922    0.55930000
MOF2_B_2-160    B    0.81302008    0.40671009    0.06098922    0.55930000
MOF2_B_2-161    B    0.59329004    0.40630997    0.06098922    0.55930000
