#======================================================================
# Crystal Data Generated By AuToFF
#----------------------------------------------------------------------

data_AuToFF_phase_1

_cell_length_a                         30.1486
_cell_length_b                         30.1486
_cell_length_c                         3.5373
_cell_angle_alpha                      90.00
_cell_angle_beta                       90.00
_cell_angle_gamma                      120.00
_symmetry_space_group_name_H-M_alt     'P 1'
_symmetry_space_group_IT_number        1

loop_
_space_group_symop_operation_xyz
   'x, y, z'

loop_
   _atom_site_label
   _atom_site_type_symbol
   _atom_site_fract_x
   _atom_site_fract_y
   _atom_site_fract_z
   _atom_site_charge
opls_145-0    C    0.70405984    0.31870989    0.49998869    -0.10390000
opls_700-1    C    0.71962995    0.37142988    0.49998869    0.04000000
opls_700-2    C    0.34819999    0.71963025    0.49998869    0.04000000
opls_145-3    C    0.38534997    0.70406002    0.49998869    -0.10390000
opls_145-4    C    0.68129013    0.38535013    0.49998869    -0.10380000
opls_700-5    C    0.62856985    0.34819998    0.49998869    0.04000000
opls_700-6    C    0.28037005    0.62857012    0.49998869    0.04000000
opls_145-7    C    0.29594016    0.68129011    0.49998869    -0.10390000
opls_145-8    C    0.61465003    0.29593998    0.49998869    -0.10390000
opls_700-9    C    0.65180020    0.28037013    0.49998869    0.04000000
opls_700-10    C    0.37143015    0.65180002    0.49998869    0.04000000
opls_145-11    C    0.31871007    0.61465025    0.49998869    -0.10390000
opls_142-12    C    0.77177003    0.40973019    0.49998869    0.08620000
opls_142-13    C    0.59026994    0.36204018    0.49998869    0.08620000
opls_142-14    C    0.63795989    0.22823001    0.49998869    0.08620000
opls_142-15    C    0.22823016    0.59027019    0.49998869    0.08630000
opls_142-16    C    0.40973025    0.63796020    0.49998869    0.08620000
opls_142-17    C    0.36204011    0.77176999    0.49998869    0.08620000
opls_145-18    C    0.13883008    0.57203005    0.49998869    0.16620000
opls_145-19    C    0.42796997    0.56680014    0.49998869    0.16610000
opls_145-20    C    0.43320014    0.86117019    0.49998869    0.16610000
opls_145-21    C    0.86116992    0.42796995    0.49998869    0.16610000
opls_145-22    C    0.57203022    0.43320024    0.49998869    0.16610000
opls_145-23    C    0.56680005    0.13883019    0.49998869    0.16610000
opls_145-24    C    0.11009984    0.59699994    0.49998869    -0.24430000
opls_145-25    C    0.59395990    0.11209007    0.49998869    -0.24430000
opls_145-26    C    0.40299994    0.51310005    0.49998869    -0.24430000
opls_145-27    C    0.88790997    0.48187993    0.49998869    -0.24430000
opls_145-28    C    0.48689988    0.88990002    0.49998869    -0.24430000
opls_145-29    C    0.51811985    0.40603000    0.49998869    -0.24430000
opls_145-30    C    0.88990016    0.40300006    0.49998869    -0.24430000
opls_145-31    C    0.40602982    0.88790993    0.49998869    -0.24430000
opls_145-32    C    0.59700006    0.48689995    0.49998869    -0.24430000
opls_145-33    C    0.11209003    0.51812007    0.49998869    -0.24430000
opls_145-34    C    0.51310012    0.11009998    0.49998869    -0.24430000
opls_145-35    C    0.48188015    0.59396004    0.49998869    -0.24430000
opls_145-36    C    0.05816003    0.49034009    0.49998869    -0.20830000
opls_145-37    C    0.48724999    0.05619996    0.49998869    -0.20830000
opls_145-38    C    0.50966016    0.56782008    0.49998869    -0.20830000
opls_145-39    C    0.94379997    0.43105006    0.49998869    -0.20830000
opls_145-40    C    0.43218000    0.94184021    0.49998869    -0.20820000
opls_145-41    C    0.56895004    0.51274998    0.49998869    -0.20830000
opls_145-42    C    0.94183997    0.50965991    0.49998869    -0.20830000
opls_145-43    C    0.51275001    0.94380004    0.49998869    -0.20820000
opls_145-44    C    0.49033984    0.43217992    0.49998869    -0.20820000
opls_145-45    C    0.05620003    0.56894994    0.49998869    -0.20830000
opls_145-46    C    0.56782019    0.05816017    0.49998869    -0.20830000
opls_145-47    C    0.43104996    0.48725002    0.49998869    -0.20830000
opls_700-48    C    0.02759008    0.51429999    0.49998869    0.04940000
opls_700-49    C    0.48570009    0.51329002    0.49998869    0.04940000
opls_700-50    C    0.48671016    0.97240999    0.49998869    0.04940000
opls_700-51    C    0.97240992    0.48570001    0.49998869    0.04940000
opls_700-52    C    0.51429991    0.48670998    0.49998869    0.04940000
opls_700-53    C    0.51328984    0.02759001    0.49998869    0.04940000
opls_146-54    H    0.73147997    0.30813020    0.49998869    0.18690000
opls_146-55    H    0.42334996    0.73147998    0.49998869    0.18690000
opls_146-56    H    0.69187018    0.42335017    0.49998869    0.18690000
opls_146-57    H    0.26852022    0.69187018    0.49998869    0.18700000
opls_146-58    H    0.57665004    0.26852002    0.49998869    0.18710000
opls_146-59    H    0.30813001    0.57665022    0.49998869    0.18690000
opls_144-60    H    0.78113002    0.44733995    0.49998869    0.09110000
opls_144-61    H    0.55265998    0.33380021    0.49998869    0.09120000
opls_144-62    H    0.66620005    0.21885984    0.49998869    0.09110000
opls_144-63    H    0.21886998    0.55266005    0.49998869    0.09110000
opls_144-64    H    0.44734022    0.66620017    0.49998869    0.09110000
opls_144-65    H    0.33379995    0.78113020    0.49998869    0.09110000
opls_146-66    H    0.12852000    0.63616009    0.49998869    0.18700000
opls_146-67    H    0.63302007    0.13150986    0.49998869    0.18700000
opls_146-68    H    0.36383988    0.49236005    0.49998869    0.18690000
opls_146-69    H    0.86849015    0.50150999    0.49998869    0.18700000
opls_146-70    H    0.50764031    0.87147029    0.49998869    0.18700000
opls_146-71    H    0.49849011    0.36698015    0.49998869    0.18700000
opls_146-72    H    0.87147005    0.36383991    0.49998869    0.18690000
opls_146-73    H    0.36697993    0.86849014    0.49998869    0.18700000
opls_146-74    H    0.63616012    0.50763995    0.49998869    0.18690000
opls_146-75    H    0.13150985    0.49849001    0.49998869    0.18700000
opls_146-76    H    0.49236021    0.12852013    0.49998869    0.18700000
opls_146-77    H    0.50151008    0.63302023    0.49998869    0.18700000
opls_146-78    H    0.95768010    0.54836008    0.49998869    0.18710000
opls_146-79    H    0.55158011    0.96107999    0.49998869    0.18710000
opls_146-80    H    0.45163995    0.40931004    0.49998869    0.18710000
opls_146-81    H    0.03892002    0.59049999    0.49998869    0.18710000
opls_146-82    H    0.59067994    0.04231993    0.49998869    0.18710000
opls_146-83    H    0.40949987    0.44842002    0.49998869    0.18720000
opls_146-84    H    0.04231990    0.45163992    0.49998869    0.18710000
opls_146-85    H    0.44841989    0.03892001    0.49998869    0.18710000
opls_146-86    H    0.54836005    0.59068996    0.49998869    0.18720000
opls_146-87    H    0.96107998    0.40950001    0.49998869    0.18710000
opls_146-88    H    0.40932006    0.95768007    0.49998869    0.18710000
opls_146-89    H    0.59050013    0.55157998    0.49998869    0.18710000
opls_750-90    N    0.80951001    0.39786016    0.49998869    -0.35900000
opls_750-91    N    0.60214001    0.41165019    0.49998869    -0.35890000
opls_750-92    N    0.58835017    0.19049003    0.49998869    -0.35890000
opls_750-93    N    0.19049018    0.60214022    0.49998869    -0.35900000
opls_750-94    N    0.39786018    0.58835020    0.49998869    -0.35890000
opls_750-95    N    0.41164983    0.80950997    0.49998869    -0.35900000
