#======================================================================
# Crystal Data Generated By AuToFF
#----------------------------------------------------------------------

data_AuToFF_phase_1

_cell_length_a                         31.6700
_cell_length_b                         31.7000
_cell_length_c                         3.6400
_cell_angle_alpha                      99.64
_cell_angle_beta                       78.35
_cell_angle_gamma                      123.41
_symmetry_space_group_name_H-M_alt     'P 1'
_symmetry_space_group_IT_number        1

loop_
_space_group_symop_operation_xyz
   'x, y, z'

loop_
   _atom_site_label
   _atom_site_type_symbol
   _atom_site_fract_x
   _atom_site_fract_y
   _atom_site_fract_z
   _atom_site_charge
opls_145-0    C    0.51751000    0.40408997    0.49103066    -0.15540000
opls_145-1    C    0.55090022    0.38870010    0.50357930    -0.16260000
opls_916-2    C    0.59989014    0.42369020    0.60757024    0.17380000
opls_700-3    C    0.61485997    0.47483999    0.69510145    -0.00130000
opls_145-4    C    0.58110993    0.48991988    0.68030063    -0.19940000
opls_145-5    C    0.53238009    0.45459996    0.57742032    0.16780000
opls_145-6    C    0.47538015    0.52987002    0.57659930    0.17030000
opls_145-7    C    0.49033002    0.58040991    0.66177149    -0.15540000
opls_145-8    C    0.45715028    0.59592007    0.64515993    -0.16260000
opls_916-9    C    0.40833027    0.56104017    0.53773028    0.16370000
opls_700-10    C    0.39320035    0.50979018    0.45328913    0.00240000
opls_145-11    C    0.42673013    0.49460016    0.47227096    -0.19700000
opls_261-12    C    0.34361007    0.47218014    0.34400938    0.25130000
opls_142-13    C    0.39104020    0.62909008    0.49592022    0.05060000
opls_142-14    C    0.61831001    0.35584998    0.62659143    0.05070000
opls_145-15    C    0.35976003    0.64678004    0.57875869    -0.13590000
opls_145-16    C    0.64973014    0.33853018    0.51182041    -0.11310000
opls_261-17    C    0.66458024    0.51248007    0.80215995    0.25130000
opls_280-18    C    0.38009010    0.69978015    0.50404886    0.37050000
opls_145-19    C    0.35042021    0.72363021    0.66549137    -0.14810000
opls_280-20    C    0.29479031    0.68939998    0.77211969    0.27290000
opls_145-21    C    0.27158003    0.63403990    0.72326068    -0.22270000
opls_280-22    C    0.30514031    0.61602006    0.73758913    0.34010000
opls_280-23    C    0.63111007    0.28569012    0.57514002    0.18400000
opls_145-24    C    0.66454991    0.26572001    0.44194109    -0.22220000
opls_280-25    C    0.71995009    0.30288019    0.39902040    0.34790000
opls_145-26    C    0.74002020    0.35497007    0.30142047    -0.11590000
opls_280-27    C    0.70274999    0.36996986    0.32093933    0.34690000
opls_142-28    C    0.22300025    0.60029013    0.66043874    0.05070000
opls_142-29    C    0.37179040    0.77420021    0.71828958    0.05070000
opls_142-30    C    0.64689029    0.21606013    0.36730998    0.05120000
opls_142-31    C    0.78992003    0.38876015    0.19557944    0.05070000
opls_522-32    C    0.13794019    0.57901018    0.51757878    0.21210000
opls_522-33    C    0.44911001    0.86279989    0.61612063    0.20440000
opls_521-34    C    0.50124015    0.89686020    0.64269969    0.02790000
opls_521-35    C    0.49719014    0.96627016    0.52520132    0.17100000
opls_522-36    C    0.44502022    0.93336008    0.49367929    -0.16070000
opls_523-37    C    0.42117025    0.88172995    0.53685021    -0.16350000
opls_521-38    C    0.10289011    0.59423989    0.59458016    0.02580000
opls_521-39    C    0.03643020    0.51283018    0.38369098    0.17100000
opls_522-40    C    0.07049017    0.49624990    0.29980937    -0.16100000
opls_523-41    C    0.12119018    0.52938019    0.36580010    -0.16350000
opls_522-42    C    0.88042997    0.41204007    0.19135907    0.20290000
opls_522-43    C    0.57107000    0.12506006    0.40015914    0.20500000
opls_521-44    C    0.91663016    0.39838002    0.07977934    0.02790000
opls_521-45    C    0.98234993    0.47845996    0.31610882    0.17110000
opls_522-46    C    0.94733000    0.49365003    0.43060992    -0.16070000
opls_523-47    C    0.89643001    0.46033017    0.37095114    -0.16310000
opls_521-48    C    0.51927022    0.09068014    0.36332017    0.02810000
opls_521-49    C    0.52345998    0.02132998    0.47980914    0.17400000
opls_522-50    C    0.57540015    0.05443016    0.51818049    -0.16060000
opls_523-51    C    0.59902000    0.10619003    0.48084947    -0.16310000
opls_750-52    N    0.49780022    0.46929000    0.54939042    -0.13060000
opls_750-53    N    0.50990014    0.51515006    0.60564141    -0.13070000
opls_238-54    N    0.37411030    0.57709022    0.52204096    -0.33100000
opls_238-55    N    0.63455008    0.40787004    0.61402029    -0.33080000
opls_262-56    N    0.30386997    0.44196001    0.25551094    -0.29630000
opls_262-57    N    0.70441035    0.54276023    0.88885890    -0.29630000
opls_238-58    N    0.42605017    0.80991996    0.66332074    -0.33010000
opls_238-59    N    0.82820991    0.37629998    0.13017916    -0.33000000
opls_238-60    N    0.59353021    0.17809016    0.36238950    -0.33070000
opls_238-61    N    0.18998004    0.61471992    0.58168005    -0.33080000
opls_520-62    N    0.52371025    0.94697006    0.59786142    -0.28780000
opls_520-63    N    0.05368999    0.56131998    0.52869908    -0.28770000
opls_520-64    N    0.96590988    0.43127987    0.14418989    -0.28780000
opls_520-65    N    0.49701019    0.04050993    0.40376937    -0.28770000
opls_281-66    O    0.26907038    0.70684001    0.92581877    -0.37640000
opls_281-67    O    0.41996023    0.72263017    0.29378107    -0.34360000
opls_281-68    O    0.28783008    0.57718988    0.89063027    -0.37920000
opls_281-69    O    0.58945009    0.25978013    0.75788965    -0.34350000
opls_281-70    O    0.71545000    0.40710992    0.16278932    -0.37720000
opls_281-71    O    0.74827029    0.29058019    0.45730987    -0.37750000
opls_146-72    H    0.48016032    0.37690018    0.40664012    0.12240000
opls_146-73    H    0.53868025    0.34961020    0.42270902    0.12600000
opls_146-74    H    0.59263023    0.52910997    0.74850136    0.12050000
opls_146-75    H    0.52759023    0.60755021    0.74759037    0.12500000
opls_146-76    H    0.46946020    0.63504017    0.72504892    0.12170000
opls_146-77    H    0.41515014    0.45535987    0.40534112    0.12010000
opls_910-78    H    0.33576015    0.54953000    0.49849011    0.27780000
opls_910-79    H    0.67302011    0.43538006    0.63500967    0.27870000
opls_144-80    H    0.43072018    0.65521012    0.39104922    0.10730000
opls_144-81    H    0.57949029    0.32974018    0.74944047    0.11040000
opls_144-82    H    0.20958004    0.56043993    0.64898104    0.10490000
opls_144-83    H    0.34698022    0.78835008    0.82632937    0.11030000
opls_144-84    H    0.67457002    0.20505019    0.28289977    0.10360000
opls_144-85    H    0.80146989    0.42672983    0.14503903    0.11110000
opls_910-86    H    0.44987030    0.79751002    0.68745923    0.27790000
opls_910-87    H    0.81774021    0.33974008    0.01530974    0.27800000
opls_910-88    H    0.56984997    0.18957995    0.31473952    0.27790000
opls_910-89    H    0.20414018    0.65301003    0.56198968    0.27790000
opls_524-90    H    0.52386016    0.88345987    0.70238939    0.12340000
opls_525-91    H    0.42310033    0.94747016    0.43154902    0.12040000
opls_526-92    H    0.38137039    0.85685014    0.50016870    0.12440000
opls_524-93    H    0.11481030    0.63233998    0.71032964    0.11570000
opls_525-94    H    0.05796993    0.45810995    0.18143093    0.12500000
opls_526-95    H    0.14725998    0.51649998    0.28843883    0.12440000
opls_524-96    H    0.90545994    0.36139999    0.94164867    0.12380000
opls_525-97    H    0.95917015    0.53069021    0.57098995    0.12270000
opls_526-98    H    0.86975998    0.47218008    0.47157084    0.12160000
opls_524-99    H    0.49663001    0.10397015    0.30180005    0.10460000
opls_525-100    H    0.59724006    0.04040010    0.58299031    0.12230000
opls_526-101    H    0.63857005    0.13106010    0.52341026    0.12500000
