#======================================================================
# Crystal Data Generated By AuToFF
#----------------------------------------------------------------------

data_AuToFF_phase_1

_cell_length_a                         18.8281
_cell_length_b                         18.7227
_cell_length_c                         3.6125
_cell_angle_alpha                      90.00
_cell_angle_beta                       90.00
_cell_angle_gamma                      120.00
_symmetry_space_group_name_H-M_alt     'P 1'
_symmetry_space_group_IT_number        1

loop_
_space_group_symop_operation_xyz
   'x, y, z'

loop_
   _atom_site_label
   _atom_site_type_symbol
   _atom_site_fract_x
   _atom_site_fract_y
   _atom_site_fract_z
   _atom_site_charge
opls_700-0    C    0.17519999    0.10940014    0.28790035    0.06880000
opls_145-1    C    0.22259990    0.07600006    0.15350035    -0.13150000
opls_145-2    C    0.30829967    0.12239975    0.15849965    -0.16860000
opls_145-3    C    0.34840008    0.20340033    0.29760000    0.18970000
opls_145-4    C    0.30140018    0.23720006    0.42480000    -0.17200000
opls_145-5    C    0.21569982    0.19069983    0.42320000    -0.12910000
opls_142-6    C    0.48889976    0.22909981    0.27399862    0.07020000
opls_700-7    C    0.95040011    0.05099995    0.23180069    0.06810000
opls_700-8    C    0.90119986    0.09340010    0.20489965    0.06760000
opls_145-9    C    0.93269993    0.17389988    0.34519862    -0.13140000
opls_145-10    C    0.88570011    0.21270012    0.33920000    -0.16960000
opls_145-11    C    0.80569993    0.17179988    0.19459931    0.19010000
opls_145-12    C    0.77400027    0.09180028    0.05629896    -0.16970000
opls_142-13    C    0.77779989    0.28530010    0.23820069    0.06990000
opls_142-14    C    0.72249988    0.51849999    0.36280138    0.06950000
opls_145-15    C    0.82119983    0.05319985    0.05660069    -0.13140000
opls_145-16    C    0.03650000    0.09690009    0.22019931    -0.17340000
opls_700-17    C    0.08399992    0.05949984    0.28599862    0.06490000
opls_145-18    C    0.04400003    0.97419998    0.35000138    -0.17030000
opls_700-19    C    0.95819995    0.92570029    0.33299931    0.07000000
opls_145-20    C    0.91200009    0.96510001    0.28109896    -0.17550000
opls_145-21    C    0.83820010    0.65959987    0.35840000    0.19690000
opls_145-22    C    0.79830012    0.69999994    0.50210104    -0.16860000
opls_145-23    C    0.83770008    0.78630014    0.50320000    -0.13090000
opls_700-24    C    0.91740005    0.83390001    0.35709896    0.06800000
opls_145-25    C    0.95720024    0.79250021    0.22029896    -0.13130000
opls_145-26    C    0.91820030    0.70650036    0.22599862    -0.15630000
opls_700-27    C    0.69240000    0.42929988    0.32930104    0.05860000
opls_145-28    C    0.74719998    0.39929988    0.29920000    -0.17040000
opls_700-29    C    0.71830015    0.31470002    0.26210104    0.05860000
opls_145-30    C    0.63349999    0.25950008    0.25400138    -0.17040000
opls_700-31    C    0.57790015    0.28839983    0.28409965    0.06980000
opls_145-32    C    0.60790005    0.37349986    0.32269896    -0.17380000
opls_750-33    N    0.43609996    0.25419983    0.30649965    -0.34810000
opls_750-34    N    0.75339984    0.20729996    0.20210104    -0.34080000
opls_750-35    N    0.80050013    0.57140011    0.34150035    -0.35290000
opls_146-36    H    0.19349997    0.01479987    0.03389896    0.11750000
opls_146-37    H    0.34239991    0.09550009    0.04230035    0.12240000
opls_146-38    H    0.33190008    0.29939998    0.53309896    0.11680000
opls_146-39    H    0.18140022    0.21779993    0.53709896    0.11670000
opls_146-40    H    0.99220001    0.20570014    0.47680000    0.12070000
opls_146-41    H    0.91080017    0.27280005    0.46519862    0.12280000
opls_146-42    H    0.71260013    0.06009992    0.94300069    0.12010000
opls_146-43    H    0.79539988    0.99249984    0.93510035    0.11820000
opls_146-44    H    0.06690014    0.16190000    0.15510035    0.11550000
opls_146-45    H    0.08000029    0.94570050    0.41799862    0.11950000
opls_146-46    H    0.84590012    0.92880002    0.27929965    0.12280000
opls_146-47    H    0.73790004    0.66560012    0.62249965    0.12280000
opls_146-48    H    0.80630033    0.81550024    0.62589896    0.11820000
opls_146-49    H    0.01729980    0.82610012    0.09430035    0.11710000
opls_146-50    H    0.94900008    0.67570045    0.11330104    0.12070000
opls_144-51    H    0.46890037    0.16430034    0.24640000    0.11470000
opls_144-52    H    0.67809976    0.53889985    0.38839862    0.11100000
opls_146-53    H    0.81269993    0.44210029    0.30520138    0.11620000
opls_146-54    H    0.56520033    0.39620015    0.34589896    0.11550000
opls_144-55    H    0.84240012    0.33060015    0.24960000    0.12100000
opls_146-56    H    0.61079992    0.19400000    0.22499931    0.11510000
