#======================================================================
# Crystal Data Generated By AuToFF
#----------------------------------------------------------------------

data_AuToFF_phase_1

_cell_length_a                         23.7733
_cell_length_b                         23.7733
_cell_length_c                         13.4608
_cell_angle_alpha                      90.00
_cell_angle_beta                       90.00
_cell_angle_gamma                      90.00
_symmetry_space_group_name_H-M_alt     'P 1'
_symmetry_space_group_IT_number        1

loop_
_space_group_symop_operation_xyz
   'x, y, z'

loop_
   _atom_site_label
   _atom_site_type_symbol
   _atom_site_fract_x
   _atom_site_fract_y
   _atom_site_fract_z
   _atom_site_charge
opls_145-0    C    0.44999011    0.72185982    0.60444030    -0.11870000
opls_145-1    C    0.49367988    0.71470010    0.53114005    0.20620000
opls_145-2    C    0.54418991    0.74429002    0.55533029    -0.11860000
opls_142-3    C    0.51952989    0.66587011    0.36154018    0.03940000
opls_700-4    C    0.50962004    0.62732982    0.26505037    0.07350000
opls_145-5    C    0.55479004    0.61762019    0.19602030    -0.09430000
opls_145-6    C    0.55083013    0.58162981    0.10850024    -0.09430000
opls_700-7    C    0.50059983    0.55273016    0.07986970    0.07850000
opls_145-8    C    0.45502013    0.56280996    0.14904983    -0.09430000
opls_145-9    C    0.45899980    0.59882010    0.23726004    -0.09430000
opls_145-10    C    0.94999011    0.22185982    0.10444030    -0.11870000
opls_145-11    C    0.99367988    0.21470010    0.03114005    0.20620000
opls_145-12    C    0.04418991    0.24429002    0.05533029    -0.11860000
opls_142-13    C    0.01952989    0.16587011    0.86154018    0.03940000
opls_700-14    C    0.00962004    0.12732982    0.76505037    0.07350000
opls_145-15    C    0.05479004    0.11762019    0.69602030    -0.09430000
opls_145-16    C    0.05083013    0.08162981    0.60850024    -0.09430000
opls_700-17    C    0.00059983    0.05273016    0.57986970    0.07850000
opls_145-18    C    0.95502013    0.06280996    0.64904983    -0.09430000
opls_145-19    C    0.95899980    0.09882010    0.73726004    -0.09430000
opls_145-20    C    0.05000989    0.77814018    0.10444030    -0.11870000
opls_145-21    C    0.00632012    0.78529990    0.03114005    0.20620000
opls_145-22    C    0.95581009    0.75570998    0.05533029    -0.11860000
opls_142-23    C    0.98047011    0.83412989    0.86154018    0.03940000
opls_700-24    C    0.99037996    0.87267018    0.76505037    0.07350000
opls_145-25    C    0.94520996    0.88237981    0.69602030    -0.09430000
opls_145-26    C    0.94916987    0.91837019    0.60850024    -0.09430000
opls_700-27    C    0.99940017    0.94726984    0.57986970    0.07850000
opls_145-28    C    0.04497987    0.93719004    0.64904983    -0.09430000
opls_145-29    C    0.04100020    0.90117990    0.73726004    -0.09430000
opls_145-30    C    0.55000989    0.27814018    0.60444030    -0.11870000
opls_145-31    C    0.50632012    0.28529990    0.53114005    0.20620000
opls_145-32    C    0.45581009    0.25570998    0.55533029    -0.11860000
opls_142-33    C    0.48047011    0.33412989    0.36154018    0.03940000
opls_700-34    C    0.49037996    0.37267018    0.26505037    0.07350000
opls_145-35    C    0.44520996    0.38237981    0.19602030    -0.09430000
opls_145-36    C    0.44916987    0.41837019    0.10850024    -0.09430000
opls_700-37    C    0.49940017    0.44726984    0.07986970    0.07850000
opls_145-38    C    0.54497987    0.43719004    0.14904983    -0.09430000
opls_145-39    C    0.54100020    0.40117990    0.23726004    -0.09430000
opls_145-40    C    0.27814018    0.94999011    0.85444030    -0.11870000
opls_145-41    C    0.28529990    0.99367988    0.78114005    0.20620000
opls_145-42    C    0.25570998    0.04418991    0.80533029    -0.11860000
opls_142-43    C    0.33412989    0.01952989    0.61154018    0.03940000
opls_700-44    C    0.37267018    0.00962004    0.51505037    0.07350000
opls_145-45    C    0.38237981    0.05479004    0.44602030    -0.09430000
opls_145-46    C    0.41837019    0.05083013    0.35850024    -0.09430000
opls_700-47    C    0.44726984    0.00059983    0.32986970    0.07850000
opls_145-48    C    0.43719004    0.95502013    0.39904983    -0.09430000
opls_145-49    C    0.40117990    0.95899980    0.48726004    -0.09430000
opls_145-50    C    0.77814018    0.44999011    0.35444030    -0.11870000
opls_145-51    C    0.78529990    0.49367988    0.28114005    0.20620000
opls_145-52    C    0.75570998    0.54418991    0.30533029    -0.11860000
opls_142-53    C    0.83412989    0.51952989    0.11154018    0.03940000
opls_700-54    C    0.87267018    0.50962004    0.01505037    0.07350000
opls_145-55    C    0.88237981    0.55479004    0.94602030    -0.09430000
opls_145-56    C    0.91837019    0.55083013    0.85850024    -0.09430000
opls_700-57    C    0.94726984    0.50059983    0.82986970    0.07850000
opls_145-58    C    0.93719004    0.45502013    0.89904983    -0.09430000
opls_145-59    C    0.90117990    0.45899980    0.98726004    -0.09430000
opls_145-60    C    0.22185982    0.55000989    0.35444030    -0.11870000
opls_145-61    C    0.21470010    0.50632012    0.28114005    0.20620000
opls_145-62    C    0.24429002    0.45581009    0.30533029    -0.11860000
opls_142-63    C    0.16587011    0.48047011    0.11154018    0.03940000
opls_700-64    C    0.12732982    0.49037996    0.01505037    0.07350000
opls_145-65    C    0.11762019    0.44520996    0.94602030    -0.09430000
opls_145-66    C    0.08162981    0.44916987    0.85850024    -0.09430000
opls_700-67    C    0.05273016    0.49940017    0.82986970    0.07850000
opls_145-68    C    0.06280996    0.54497987    0.89904983    -0.09430000
opls_145-69    C    0.09882010    0.54100020    0.98726004    -0.09430000
opls_145-70    C    0.72185982    0.05000989    0.85444030    -0.11870000
opls_145-71    C    0.71470010    0.00632012    0.78114005    0.20620000
opls_145-72    C    0.74429002    0.95581009    0.80533029    -0.11860000
opls_142-73    C    0.66587011    0.98047011    0.61154018    0.03940000
opls_700-74    C    0.62732982    0.99037996    0.51505037    0.07350000
opls_145-75    C    0.61762019    0.94520996    0.44602030    -0.09430000
opls_145-76    C    0.58162981    0.94916987    0.35850024    -0.09430000
opls_700-77    C    0.55273016    0.99940017    0.32986970    0.07850000
opls_145-78    C    0.56280996    0.04497987    0.39904983    -0.09430000
opls_145-79    C    0.59882010    0.04100020    0.48726004    -0.09430000
opls_145-80    C    0.55000989    0.77814018    0.64555970    -0.11870000
opls_145-81    C    0.50632012    0.78529990    0.71885995    0.20620000
opls_145-82    C    0.45581009    0.75570998    0.69466971    -0.11860000
opls_142-83    C    0.48047011    0.83412989    0.88845982    0.03940000
opls_700-84    C    0.49037996    0.87267018    0.98494963    0.07350000
opls_145-85    C    0.44520996    0.88237981    0.05397970    -0.09430000
opls_145-86    C    0.44916987    0.91837019    0.14149976    -0.09430000
opls_700-87    C    0.49940017    0.94726984    0.17013030    0.07850000
opls_145-88    C    0.54497987    0.93719004    0.10095017    -0.09430000
opls_145-89    C    0.54100020    0.90117990    0.01273996    -0.09430000
opls_145-90    C    0.05000989    0.27814018    0.14555970    -0.11870000
opls_145-91    C    0.00632012    0.28529990    0.21885995    0.20620000
opls_145-92    C    0.95581009    0.25570998    0.19466971    -0.11860000
opls_142-93    C    0.98047011    0.33412989    0.38845982    0.03940000
opls_700-94    C    0.99037996    0.37267018    0.48494963    0.07350000
opls_145-95    C    0.94520996    0.38237981    0.55397970    -0.09430000
opls_145-96    C    0.94916987    0.41837019    0.64149976    -0.09430000
opls_700-97    C    0.99940017    0.44726984    0.67013030    0.07850000
opls_145-98    C    0.04497987    0.43719004    0.60095017    -0.09430000
opls_145-99    C    0.04100020    0.40117990    0.51273996    -0.09430000
opls_145-100    C    0.94999011    0.72185982    0.14555970    -0.11870000
opls_145-101    C    0.99367988    0.71470010    0.21885995    0.20620000
opls_145-102    C    0.04418991    0.74429002    0.19466971    -0.11850000
opls_142-103    C    0.01952989    0.66587011    0.38845982    0.03940000
opls_700-104    C    0.00962004    0.62732982    0.48494963    0.07350000
opls_145-105    C    0.05479004    0.61762019    0.55397970    -0.09430000
opls_145-106    C    0.05083013    0.58162981    0.64149976    -0.09430000
opls_700-107    C    0.00059983    0.55273016    0.67013030    0.07850000
opls_145-108    C    0.95502013    0.56280996    0.60095017    -0.09430000
opls_145-109    C    0.95899980    0.59882010    0.51273996    -0.09430000
opls_145-110    C    0.44999011    0.22185982    0.64555970    -0.11870000
opls_145-111    C    0.49367988    0.21470010    0.71885995    0.20620000
opls_145-112    C    0.54418991    0.24429002    0.69466971    -0.11860000
opls_142-113    C    0.51952989    0.16587011    0.88845982    0.03940000
opls_700-114    C    0.50962004    0.12732982    0.98494963    0.07360000
opls_145-115    C    0.55479004    0.11762019    0.05397970    -0.09430000
opls_145-116    C    0.55083013    0.08162981    0.14149976    -0.09430000
opls_700-117    C    0.50059983    0.05273016    0.17013030    0.07850000
opls_145-118    C    0.45502013    0.06280996    0.10095017    -0.09420000
opls_145-119    C    0.45899980    0.09882010    0.01273996    -0.09430000
opls_145-120    C    0.72185982    0.55000989    0.39555970    -0.11870000
opls_145-121    C    0.71470010    0.50632012    0.46885995    0.20620000
opls_145-122    C    0.74429002    0.45581009    0.44466971    -0.11860000
opls_142-123    C    0.66587011    0.48047011    0.63845982    0.03940000
opls_700-124    C    0.62732982    0.49037996    0.73494963    0.07350000
opls_145-125    C    0.61762019    0.44520996    0.80397970    -0.09430000
opls_145-126    C    0.58162981    0.44916987    0.89149976    -0.09430000
opls_700-127    C    0.55273016    0.49940017    0.92013030    0.07850000
opls_145-128    C    0.56280996    0.54497987    0.85095017    -0.09430000
opls_145-129    C    0.59882010    0.54100020    0.76273996    -0.09430000
opls_145-130    C    0.22185982    0.05000989    0.89555970    -0.11870000
opls_145-131    C    0.21470010    0.00632012    0.96885995    0.20620000
opls_145-132    C    0.24429002    0.95581009    0.94466971    -0.11860000
opls_142-133    C    0.16587011    0.98047011    0.13845982    0.03940000
opls_700-134    C    0.12732982    0.99037996    0.23494963    0.07350000
opls_145-135    C    0.11762019    0.94520996    0.30397970    -0.09430000
opls_145-136    C    0.08162981    0.94916987    0.39149976    -0.09430000
opls_700-137    C    0.05273016    0.99940017    0.42013030    0.07850000
opls_145-138    C    0.06280996    0.04497987    0.35095017    -0.09430000
opls_145-139    C    0.09882010    0.04100020    0.26273996    -0.09430000
opls_145-140    C    0.77814018    0.94999011    0.89555970    -0.11870000
opls_145-141    C    0.78529990    0.99367988    0.96885995    0.20620000
opls_145-142    C    0.75570998    0.04418991    0.94466971    -0.11850000
opls_142-143    C    0.83412989    0.01952989    0.13845982    0.03940000
opls_700-144    C    0.87267018    0.00962004    0.23494963    0.07350000
opls_145-145    C    0.88237981    0.05479004    0.30397970    -0.09430000
opls_145-146    C    0.91837019    0.05083013    0.39149976    -0.09430000
opls_700-147    C    0.94726984    0.00059983    0.42013030    0.07860000
opls_145-148    C    0.93719004    0.95502013    0.35095017    -0.09420000
opls_145-149    C    0.90117990    0.95899980    0.26273996    -0.09430000
opls_145-150    C    0.27814018    0.44999011    0.39555970    -0.11870000
opls_145-151    C    0.28529990    0.49367988    0.46885995    0.20620000
opls_145-152    C    0.25570998    0.54418991    0.44466971    -0.11860000
opls_142-153    C    0.33412989    0.51952989    0.63845982    0.03940000
opls_700-154    C    0.37267018    0.50962004    0.73494963    0.07350000
opls_145-155    C    0.38237981    0.55479004    0.80397970    -0.09430000
opls_145-156    C    0.41837019    0.55083013    0.89149976    -0.09430000
opls_700-157    C    0.44726984    0.50059983    0.92013030    0.07850000
opls_145-158    C    0.43719004    0.45502013    0.85095017    -0.09430000
opls_145-159    C    0.40117990    0.45899980    0.76273996    -0.09430000
opls_701-160    C    0.00000000    0.50000000    0.75000000    0.03810000
opls_701-161    C    0.50000000    0.00000000    0.25000000    0.03810000
opls_701-162    C    0.50000000    0.50000000    0.00000000    0.03810000
opls_701-163    C    0.00000000    0.00000000    0.50000000    0.03810000
opls_750-164    N    0.48480017    0.67849015    0.43836028    -0.24280000
opls_750-165    N    0.98480017    0.17849015    0.93836028    -0.24290000
opls_750-166    N    0.01519983    0.82150985    0.93836028    -0.24290000
opls_750-167    N    0.51519983    0.32150985    0.43836028    -0.24290000
opls_750-168    N    0.32150985    0.98480017    0.68836028    -0.24290000
opls_750-169    N    0.82150985    0.48480017    0.18836028    -0.24280000
opls_750-170    N    0.17849015    0.51519983    0.18836028    -0.24290000
opls_750-171    N    0.67849015    0.01519983    0.68836028    -0.24290000
opls_750-172    N    0.51519983    0.82150985    0.81163972    -0.24290000
opls_750-173    N    0.01519983    0.32150985    0.31163972    -0.24290000
opls_750-174    N    0.98480017    0.67849015    0.31163972    -0.24290000
opls_750-175    N    0.48480017    0.17849015    0.81163972    -0.24290000
opls_750-176    N    0.67849015    0.51519983    0.56163972    -0.24290000
opls_750-177    N    0.17849015    0.01519983    0.06163972    -0.24280000
opls_750-178    N    0.82150985    0.98480017    0.06163972    -0.24290000
opls_750-179    N    0.32150985    0.48480017    0.56163972    -0.24290000
opls_146-180    H    0.40813980    0.70055987    0.59375966    0.10600000
opls_146-181    H    0.58152002    0.74192014    0.50358002    0.04780000
opls_144-182    H    0.56335006    0.68375993    0.35959007    0.04790000
opls_146-183    H    0.59668998    0.63858993    0.20811022    0.04690000
opls_146-184    H    0.58863010    0.57526006    0.05894003    0.04780000
opls_146-185    H    0.41297001    0.54223982    0.13652012    0.10600000
opls_146-186    H    0.42000017    0.60371004    0.28431965    0.04780000
opls_146-187    H    0.90813980    0.20055987    0.09375966    0.10600000
opls_146-188    H    0.08152002    0.24192014    0.00358002    0.04780000
opls_144-189    H    0.06335006    0.18375993    0.85959007    0.04790000
opls_146-190    H    0.09668998    0.13858993    0.70811022    0.04690000
opls_146-191    H    0.08863010    0.07526006    0.55894003    0.04780000
opls_146-192    H    0.91297001    0.04223982    0.63652012    0.10600000
opls_146-193    H    0.92000017    0.10371004    0.78431965    0.04780000
opls_146-194    H    0.09186020    0.79944013    0.09375966    0.10600000
opls_146-195    H    0.91847998    0.75807986    0.00358002    0.04780000
opls_144-196    H    0.93664994    0.81624007    0.85959007    0.04790000
opls_146-197    H    0.90331002    0.86141007    0.70811022    0.04690000
opls_146-198    H    0.91136990    0.92473994    0.55894003    0.04780000
opls_146-199    H    0.08702999    0.95776018    0.63652012    0.10600000
opls_146-200    H    0.07999983    0.89628996    0.78431965    0.04780000
opls_146-201    H    0.59186020    0.29944013    0.59375966    0.10600000
opls_146-202    H    0.41847998    0.25807986    0.50358002    0.04790000
opls_144-203    H    0.43664994    0.31624007    0.35959007    0.04790000
opls_146-204    H    0.40331002    0.36141007    0.20811022    0.04690000
opls_146-205    H    0.41136990    0.42473994    0.05894003    0.04780000
opls_146-206    H    0.58702999    0.45776018    0.13652012    0.10600000
opls_146-207    H    0.57999983    0.39628996    0.28431965    0.04780000
opls_146-208    H    0.29944013    0.90813980    0.84375966    0.10600000
opls_146-209    H    0.25807986    0.08152002    0.75358002    0.04780000
opls_144-210    H    0.31624007    0.06335006    0.60959007    0.04790000
opls_146-211    H    0.36141007    0.09668998    0.45811022    0.04690000
opls_146-212    H    0.42473994    0.08863010    0.30894003    0.04780000
opls_146-213    H    0.45776018    0.91297001    0.38652012    0.10600000
opls_146-214    H    0.39628996    0.92000017    0.53431965    0.04780000
opls_146-215    H    0.79944013    0.40813980    0.34375966    0.10600000
opls_146-216    H    0.75807986    0.58152002    0.25358002    0.04780000
opls_144-217    H    0.81624007    0.56335006    0.10959007    0.04790000
opls_146-218    H    0.86141007    0.59668998    0.95811022    0.04690000
opls_146-219    H    0.92473994    0.58863010    0.80894003    0.04780000
opls_146-220    H    0.95776018    0.41297001    0.88652012    0.10600000
opls_146-221    H    0.89628996    0.42000017    0.03431965    0.04780000
opls_146-222    H    0.20055987    0.59186020    0.34375966    0.10600000
opls_146-223    H    0.24192014    0.41847998    0.25358002    0.04780000
opls_144-224    H    0.18375993    0.43664994    0.10959007    0.04790000
opls_146-225    H    0.13858993    0.40331002    0.95811022    0.04690000
opls_146-226    H    0.07526006    0.41136990    0.80894003    0.04780000
opls_146-227    H    0.04223982    0.58702999    0.88652012    0.10600000
opls_146-228    H    0.10371004    0.57999983    0.03431965    0.04780000
opls_146-229    H    0.70055987    0.09186020    0.84375966    0.10600000
opls_146-230    H    0.74192014    0.91847998    0.75358002    0.04780000
opls_144-231    H    0.68375993    0.93664994    0.60959007    0.04790000
opls_146-232    H    0.63858993    0.90331002    0.45811022    0.04690000
opls_146-233    H    0.57526006    0.91136990    0.30894003    0.04780000
opls_146-234    H    0.54223982    0.08702999    0.38652012    0.10600000
opls_146-235    H    0.60371004    0.07999983    0.53431965    0.04780000
opls_146-236    H    0.59186020    0.79944013    0.65624034    0.10600000
opls_146-237    H    0.41847998    0.75807986    0.74641998    0.04780000
opls_144-238    H    0.43664994    0.81624007    0.89040993    0.04790000
opls_146-239    H    0.40331002    0.86141007    0.04188978    0.04690000
opls_146-240    H    0.41136990    0.92473994    0.19105997    0.04780000
opls_146-241    H    0.58702999    0.95776018    0.11347988    0.10600000
opls_146-242    H    0.57999983    0.89628996    0.96568035    0.04780000
opls_146-243    H    0.09186020    0.29944013    0.15624034    0.10600000
opls_146-244    H    0.91847998    0.25807986    0.24641998    0.04780000
opls_144-245    H    0.93664994    0.31624007    0.39040993    0.04800000
opls_146-246    H    0.90331002    0.36141007    0.54188978    0.04690000
opls_146-247    H    0.91136990    0.42473994    0.69105997    0.04780000
opls_146-248    H    0.08702999    0.45776018    0.61347988    0.10600000
opls_146-249    H    0.07999983    0.39628996    0.46568035    0.04780000
opls_146-250    H    0.90813980    0.70055987    0.15624034    0.10600000
opls_146-251    H    0.08152002    0.74192014    0.24641998    0.04780000
opls_144-252    H    0.06335006    0.68375993    0.39040993    0.04790000
opls_146-253    H    0.09668998    0.63858993    0.54188978    0.04690000
opls_146-254    H    0.08863010    0.57526006    0.69105997    0.04780000
opls_146-255    H    0.91297001    0.54223982    0.61347988    0.10600000
opls_146-256    H    0.92000017    0.60371004    0.46568035    0.04780000
opls_146-257    H    0.40813980    0.20055987    0.65624034    0.10600000
opls_146-258    H    0.58152002    0.24192014    0.74641998    0.04780000
opls_144-259    H    0.56335006    0.18375993    0.89040993    0.04790000
opls_146-260    H    0.59668998    0.13858993    0.04188978    0.04690000
opls_146-261    H    0.58863010    0.07526006    0.19105997    0.04780000
opls_146-262    H    0.41297001    0.04223982    0.11347988    0.10600000
opls_146-263    H    0.42000017    0.10371004    0.96568035    0.04780000
opls_146-264    H    0.70055987    0.59186020    0.40624034    0.10600000
opls_146-265    H    0.74192014    0.41847998    0.49641998    0.04780000
opls_144-266    H    0.68375993    0.43664994    0.64040993    0.04790000
opls_146-267    H    0.63858993    0.40331002    0.79188978    0.04690000
opls_146-268    H    0.57526006    0.41136990    0.94105997    0.04780000
opls_146-269    H    0.54223982    0.58702999    0.86347988    0.10600000
opls_146-270    H    0.60371004    0.57999983    0.71568035    0.04780000
opls_146-271    H    0.20055987    0.09186020    0.90624034    0.10600000
opls_146-272    H    0.24192014    0.91847998    0.99641998    0.04780000
opls_144-273    H    0.18375993    0.93664994    0.14040993    0.04790000
opls_146-274    H    0.13858993    0.90331002    0.29188978    0.04690000
opls_146-275    H    0.07526006    0.91136990    0.44105997    0.04780000
opls_146-276    H    0.04223982    0.08702999    0.36347988    0.10610000
opls_146-277    H    0.10371004    0.07999983    0.21568035    0.04780000
opls_146-278    H    0.79944013    0.90813980    0.90624034    0.10600000
opls_146-279    H    0.75807986    0.08152002    0.99641998    0.04780000
opls_144-280    H    0.81624007    0.06335006    0.14040993    0.04790000
opls_146-281    H    0.86141007    0.09668998    0.29188978    0.04690000
opls_146-282    H    0.92473994    0.08863010    0.44105997    0.04780000
opls_146-283    H    0.95776018    0.91297001    0.36347988    0.10600000
opls_146-284    H    0.89628996    0.92000017    0.21568035    0.04780000
opls_146-285    H    0.29944013    0.40813980    0.40624034    0.10600000
opls_146-286    H    0.25807986    0.58152002    0.49641998    0.04780000
opls_144-287    H    0.31624007    0.56335006    0.64040993    0.04790000
opls_146-288    H    0.36141007    0.59668998    0.79188978    0.04690000
opls_146-289    H    0.42473994    0.58863010    0.94105997    0.04780000
opls_146-290    H    0.45776018    0.41297001    0.86347988    0.10600000
opls_146-291    H    0.39628996    0.42000017    0.71568035    0.04780000
