#======================================================================
# Crystal Data Generated By AuToFF
#----------------------------------------------------------------------

data_AuToFF_phase_1

_cell_length_a                         27.8220
_cell_length_b                         27.8220
_cell_length_c                         21.0300
_cell_angle_alpha                      90.00
_cell_angle_beta                       90.00
_cell_angle_gamma                      90.00
_symmetry_space_group_name_H-M_alt     'P 1'
_symmetry_space_group_IT_number        1

loop_
_space_group_symop_operation_xyz
   'x, y, z'

loop_
   _atom_site_label
   _atom_site_type_symbol
   _atom_site_fract_x
   _atom_site_fract_y
   _atom_site_fract_z
   _atom_site_charge
opls_700-0    C    0.23884983    0.73266013    0.43877984    0.07330000
opls_145-1    C    0.22625009    0.77970994    0.45645982    -0.07200000
opls_142-2    C    0.22509992    0.71264000    0.37644983    0.01690000
opls_145-3    C    0.17794982    0.71751995    0.28009986    0.23620000
opls_145-4    C    0.19834016    0.67800014    0.24812981    -0.12920000
opls_145-5    C    0.17077996    0.65153008    0.20500999    -0.07180000
opls_700-6    C    0.12284990    0.66435015    0.19346981    0.08380000
opls_145-7    C    0.10478003    0.70725002    0.21908987    -0.07180000
opls_145-8    C    0.13253001    0.73401984    0.26162007    -0.12900000
opls_700-9    C    0.08889009    0.62643016    0.17513980    0.08310000
opls_145-10    C    0.06428007    0.60323018    0.22419020    -0.10060000
opls_145-11    C    0.03598986    0.56357990    0.21130005    -0.07180000
opls_700-12    C    0.02992991    0.54618000    0.14844983    0.09610000
opls_145-13    C    0.05373014    0.57083998    0.09886020    -0.07610000
opls_145-14    C    0.08367012    0.61027999    0.11228008    -0.07770000
opls_145-15    C    0.29682014    0.26268996    0.51719020    -0.07190000
opls_700-16    C    0.76115017    0.26733987    0.43877984    0.07330000
opls_145-17    C    0.77374991    0.22029006    0.45645982    -0.07190000
opls_142-18    C    0.77490008    0.28736000    0.37644983    0.01690000
opls_145-19    C    0.82205018    0.28248005    0.28009986    0.23610000
opls_145-20    C    0.80165984    0.32199986    0.24812981    -0.12920000
opls_145-21    C    0.82922004    0.34846992    0.20500999    -0.07180000
opls_700-22    C    0.87715010    0.33564985    0.19346981    0.08380000
opls_145-23    C    0.89521997    0.29274998    0.21908987    -0.07170000
opls_145-24    C    0.86746999    0.26598016    0.26162007    -0.12900000
opls_700-25    C    0.91110991    0.37356984    0.17513980    0.08310000
opls_145-26    C    0.93571993    0.39676982    0.22419020    -0.10060000
opls_145-27    C    0.96401014    0.43642010    0.21130005    -0.07180000
opls_700-28    C    0.97007009    0.45382000    0.14844983    0.09620000
opls_145-29    C    0.94626986    0.42916002    0.09886020    -0.07620000
opls_145-30    C    0.91632988    0.38972001    0.11228008    -0.07770000
opls_145-31    C    0.70317986    0.73731004    0.51719020    -0.07190000
opls_700-32    C    0.76733987    0.73884983    0.43877984    0.07330000
opls_145-33    C    0.72029006    0.72625009    0.45645982    -0.07200000
opls_142-34    C    0.78736000    0.72509992    0.37644983    0.01690000
opls_145-35    C    0.78248005    0.67794982    0.28009986    0.23610000
opls_145-36    C    0.82199986    0.69834016    0.24812981    -0.12920000
opls_145-37    C    0.84846992    0.67077996    0.20500999    -0.07180000
opls_700-38    C    0.83564985    0.62284990    0.19346981    0.08380000
opls_145-39    C    0.79274998    0.60478003    0.21908987    -0.07180000
opls_145-40    C    0.76598016    0.63253001    0.26162007    -0.12900000
opls_700-41    C    0.87356984    0.58889009    0.17513980    0.08310000
opls_145-42    C    0.89676982    0.56428007    0.22419020    -0.10060000
opls_145-43    C    0.93642010    0.53598986    0.21130005    -0.07180000
opls_700-44    C    0.95382000    0.52992991    0.14844983    0.09610000
opls_145-45    C    0.92916002    0.55373014    0.09886020    -0.07620000
opls_145-46    C    0.88972001    0.58367012    0.11228008    -0.07770000
opls_145-47    C    0.23731004    0.79682014    0.51719020    -0.07190000
opls_700-48    C    0.23266013    0.26115017    0.43877984    0.07330000
opls_145-49    C    0.27970994    0.27374991    0.45645982    -0.07200000
opls_142-50    C    0.21264000    0.27490008    0.37644983    0.01690000
opls_145-51    C    0.21751995    0.32205018    0.28009986    0.23610000
opls_145-52    C    0.17800014    0.30165984    0.24812981    -0.12920000
opls_145-53    C    0.15153008    0.32922004    0.20500999    -0.07180000
opls_700-54    C    0.16435015    0.37715010    0.19346981    0.08380000
opls_145-55    C    0.20725002    0.39521997    0.21908987    -0.07180000
opls_145-56    C    0.23401984    0.36746999    0.26162007    -0.12900000
opls_700-57    C    0.12643016    0.41110991    0.17513980    0.08310000
opls_145-58    C    0.10323018    0.43571993    0.22419020    -0.10060000
opls_145-59    C    0.06357990    0.46401014    0.21130005    -0.07180000
opls_700-60    C    0.04618000    0.47007009    0.14844983    0.09610000
opls_145-61    C    0.07083998    0.44626986    0.09886020    -0.07620000
opls_145-62    C    0.11027999    0.41632988    0.11228008    -0.07770000
opls_145-63    C    0.76268996    0.20317986    0.51719020    -0.07190000
opls_700-64    C    0.26115017    0.76733987    0.56122016    0.07330000
opls_145-65    C    0.27374991    0.72029006    0.54354018    -0.07200000
opls_142-66    C    0.27490008    0.78736000    0.62355017    0.01690000
opls_145-67    C    0.32205018    0.78248005    0.71990014    0.23610000
opls_145-68    C    0.30165984    0.82199986    0.75187019    -0.12920000
opls_145-69    C    0.32922004    0.84846992    0.79499001    -0.07180000
opls_700-70    C    0.37715010    0.83564985    0.80653019    0.08380000
opls_145-71    C    0.39521997    0.79274998    0.78091013    -0.07180000
opls_145-72    C    0.36746999    0.76598016    0.73837993    -0.12900000
opls_700-73    C    0.41110991    0.87356984    0.82486020    0.08310000
opls_145-74    C    0.43571993    0.89676982    0.77580980    -0.10060000
opls_145-75    C    0.46401014    0.93642010    0.78869995    -0.07180000
opls_700-76    C    0.47007009    0.95382000    0.85155017    0.09620000
opls_145-77    C    0.44626986    0.92916002    0.90113980    -0.07620000
opls_145-78    C    0.41632988    0.88972001    0.88771992    -0.07770000
opls_145-79    C    0.20317986    0.23731004    0.48280980    -0.07190000
opls_700-80    C    0.73884983    0.23266013    0.56122016    0.07330000
opls_145-81    C    0.72625009    0.27970994    0.54354018    -0.07200000
opls_142-82    C    0.72509992    0.21264000    0.62355017    0.01690000
opls_145-83    C    0.67794982    0.21751995    0.71990014    0.23620000
opls_145-84    C    0.69834016    0.17800014    0.75187019    -0.12910000
opls_145-85    C    0.67077996    0.15153008    0.79499001    -0.07180000
opls_700-86    C    0.62284990    0.16435015    0.80653019    0.08390000
opls_145-87    C    0.60478003    0.20725002    0.78091013    -0.07180000
opls_145-88    C    0.63253001    0.23401984    0.73837993    -0.12900000
opls_700-89    C    0.58889009    0.12643016    0.82486020    0.08310000
opls_145-90    C    0.56428007    0.10323018    0.77580980    -0.10060000
opls_145-91    C    0.53598986    0.06357990    0.78869995    -0.07170000
opls_700-92    C    0.52992991    0.04618000    0.85155017    0.09610000
opls_145-93    C    0.55373014    0.07083998    0.90113980    -0.07620000
opls_145-94    C    0.58367012    0.11027999    0.88771992    -0.07770000
opls_145-95    C    0.79682014    0.76268996    0.48280980    -0.07190000
opls_700-96    C    0.73266013    0.76115017    0.56122016    0.07330000
opls_145-97    C    0.77970994    0.77374991    0.54354018    -0.07200000
opls_142-98    C    0.71264000    0.77490008    0.62355017    0.01690000
opls_145-99    C    0.71751995    0.82205018    0.71990014    0.23610000
opls_145-100    C    0.67800014    0.80165984    0.75187019    -0.12920000
opls_145-101    C    0.65153008    0.82922004    0.79499001    -0.07180000
opls_700-102    C    0.66435015    0.87715010    0.80653019    0.08380000
opls_145-103    C    0.70725002    0.89521997    0.78091013    -0.07180000
opls_145-104    C    0.73401984    0.86746999    0.73837993    -0.12880000
opls_700-105    C    0.62643016    0.91110991    0.82486020    0.08310000
opls_145-106    C    0.60323018    0.93571993    0.77580980    -0.10060000
opls_145-107    C    0.56357990    0.96401014    0.78869995    -0.07180000
opls_700-108    C    0.54618000    0.97007009    0.85155017    0.09620000
opls_145-109    C    0.57083998    0.94626986    0.90113980    -0.07610000
opls_145-110    C    0.61027999    0.91632988    0.88771992    -0.07770000
opls_145-111    C    0.26268996    0.70317986    0.48280980    -0.07190000
opls_700-112    C    0.26733987    0.23884983    0.56122016    0.07330000
opls_145-113    C    0.22029006    0.22625009    0.54354018    -0.07190000
opls_142-114    C    0.28736000    0.22509992    0.62355017    0.01690000
opls_145-115    C    0.28248005    0.17794982    0.71990014    0.23610000
opls_145-116    C    0.32199986    0.19834016    0.75187019    -0.12920000
opls_145-117    C    0.34846992    0.17077996    0.79499001    -0.07180000
opls_700-118    C    0.33564985    0.12284990    0.80653019    0.08380000
opls_145-119    C    0.29274998    0.10478003    0.78091013    -0.07180000
opls_145-120    C    0.26598016    0.13253001    0.73837993    -0.12890000
opls_700-121    C    0.37356984    0.08889009    0.82486020    0.08310000
opls_145-122    C    0.39676982    0.06428007    0.77580980    -0.10060000
opls_145-123    C    0.43642010    0.03598986    0.78869995    -0.07180000
opls_700-124    C    0.45382000    0.02992991    0.85155017    0.09610000
opls_145-125    C    0.42916002    0.05373014    0.90113980    -0.07620000
opls_145-126    C    0.38972001    0.08367012    0.88771992    -0.07770000
opls_145-127    C    0.73731004    0.29682014    0.48280980    -0.07180000
opls_701-128    C    0.00000000    0.50000000    0.13406990    0.03930000
opls_701-129    C    0.50000000    0.00000000    0.86593010    0.03930000
opls_146-130    H    0.06738984    0.72031989    0.20521018    0.05120000
opls_144-131    H    0.23761987    0.67514018    0.36221018    0.03020000
opls_146-132    H    0.23733987    0.66759004    0.25741988    0.05110000
opls_146-133    H    0.11818992    0.76939005    0.28134998    0.05110000
opls_146-134    H    0.18727985    0.61950004    0.17920019    0.05110000
opls_146-135    H    0.06748005    0.61698009    0.27507989    0.05110000
opls_146-136    H    0.10369995    0.62913989    0.07210984    0.05110000
opls_146-137    H    0.04873985    0.55879987    0.04746981    0.05110000
opls_146-138    H    0.33506002    0.27318992    0.53086020    0.05110000
opls_146-139    H    0.19590001    0.20692006    0.57879981    0.05110000
opls_146-140    H    0.01687010    0.54406010    0.25168997    0.05110000
opls_146-141    H    0.93261016    0.27968011    0.20521018    0.05110000
opls_144-142    H    0.76238013    0.32485982    0.36221018    0.03020000
opls_146-143    H    0.76266013    0.33240996    0.25741988    0.05110000
opls_146-144    H    0.88181008    0.23060995    0.28134998    0.05110000
opls_146-145    H    0.81272015    0.38049996    0.17920019    0.05110000
opls_146-146    H    0.93251995    0.38301991    0.27507989    0.05110000
opls_146-147    H    0.89630005    0.37086011    0.07210984    0.05110000
opls_146-148    H    0.95126015    0.44120013    0.04746981    0.05110000
opls_146-149    H    0.66493998    0.72681008    0.53086020    0.05110000
opls_146-150    H    0.80409999    0.79307994    0.57879981    0.05110000
opls_146-151    H    0.98312990    0.45593990    0.25168997    0.05110000
opls_146-152    H    0.77968011    0.56738984    0.20521018    0.05110000
opls_144-153    H    0.82485982    0.73761987    0.36221018    0.03020000
opls_146-154    H    0.83240996    0.73733987    0.25741988    0.05110000
opls_146-155    H    0.73060995    0.61818992    0.28134998    0.05110000
opls_146-156    H    0.88049996    0.68727985    0.17920019    0.05120000
opls_146-157    H    0.88301991    0.56748005    0.27507989    0.05110000
opls_146-158    H    0.87086011    0.60369995    0.07210984    0.05110000
opls_146-159    H    0.94120013    0.54873985    0.04746981    0.05110000
opls_146-160    H    0.22681008    0.83506002    0.53086020    0.05110000
opls_146-161    H    0.29307994    0.69590001    0.57879981    0.05110000
opls_146-162    H    0.95593990    0.51687010    0.25168997    0.05110000
opls_146-163    H    0.22031989    0.43261016    0.20521018    0.05110000
opls_144-164    H    0.17514018    0.26238013    0.36221018    0.03020000
opls_146-165    H    0.16759004    0.26266013    0.25741988    0.05110000
opls_146-166    H    0.26939005    0.38181008    0.28134998    0.05110000
opls_146-167    H    0.11950004    0.31272015    0.17920019    0.05110000
opls_146-168    H    0.11698009    0.43251995    0.27507989    0.05110000
opls_146-169    H    0.12913989    0.39630005    0.07210984    0.05110000
opls_146-170    H    0.05879987    0.45126015    0.04746981    0.05110000
opls_146-171    H    0.77318992    0.16493998    0.53086020    0.05110000
opls_146-172    H    0.70692006    0.30409999    0.57879981    0.05110000
opls_146-173    H    0.04406010    0.48312990    0.25168997    0.05110000
opls_146-174    H    0.43261016    0.77968011    0.79478982    0.05110000
opls_144-175    H    0.26238013    0.82485982    0.63778982    0.03020000
opls_146-176    H    0.26266013    0.83240996    0.74258012    0.05110000
opls_146-177    H    0.38181008    0.73060995    0.71865002    0.05110000
opls_146-178    H    0.31272015    0.88049996    0.82079981    0.05110000
opls_146-179    H    0.43251995    0.88301991    0.72492011    0.05120000
opls_146-180    H    0.39630005    0.87086011    0.92789016    0.05120000
opls_146-181    H    0.45126015    0.94120013    0.95253019    0.05110000
opls_146-182    H    0.16493998    0.22681008    0.46913980    0.05110000
opls_146-183    H    0.30409999    0.29307994    0.42120019    0.05110000
opls_146-184    H    0.48312990    0.95593990    0.74831003    0.05120000
opls_146-185    H    0.56738984    0.22031989    0.79478982    0.05110000
opls_144-186    H    0.73761987    0.17514018    0.63778982    0.03020000
opls_146-187    H    0.73733987    0.16759004    0.74258012    0.05120000
opls_146-188    H    0.61818992    0.26939005    0.71865002    0.05110000
opls_146-189    H    0.68727985    0.11950004    0.82079981    0.05110000
opls_146-190    H    0.56748005    0.11698009    0.72492011    0.05110000
opls_146-191    H    0.60369995    0.12913989    0.92789016    0.05110000
opls_146-192    H    0.54873985    0.05879987    0.95253019    0.05110000
opls_146-193    H    0.83506002    0.77318992    0.46913980    0.05110000
opls_146-194    H    0.69590001    0.70692006    0.42120019    0.05110000
opls_146-195    H    0.51687010    0.04406010    0.74831003    0.05110000
opls_146-196    H    0.72031989    0.93261016    0.79478982    0.05110000
opls_144-197    H    0.67514018    0.76238013    0.63778982    0.03020000
opls_146-198    H    0.66759004    0.76266013    0.74258012    0.05110000
opls_146-199    H    0.76939005    0.88181008    0.71865002    0.05120000
opls_146-200    H    0.61950004    0.81272015    0.82079981    0.05110000
opls_146-201    H    0.61698009    0.93251995    0.72492011    0.05110000
opls_146-202    H    0.62913989    0.89630005    0.92789016    0.05110000
opls_146-203    H    0.55879987    0.95126015    0.95253019    0.05110000
opls_146-204    H    0.27318992    0.66493998    0.46913980    0.05110000
opls_146-205    H    0.20692006    0.80409999    0.42120019    0.05110000
opls_146-206    H    0.54406010    0.98312990    0.74831003    0.05110000
opls_146-207    H    0.27968011    0.06738984    0.79478982    0.05110000
opls_144-208    H    0.32485982    0.23761987    0.63778982    0.03020000
opls_146-209    H    0.33240996    0.23733987    0.74258012    0.05110000
opls_146-210    H    0.23060995    0.11818992    0.71865002    0.05110000
opls_146-211    H    0.38049996    0.18727985    0.82079981    0.05110000
opls_146-212    H    0.38301991    0.06748005    0.72492011    0.05110000
opls_146-213    H    0.37086011    0.10369995    0.92789016    0.05120000
opls_146-214    H    0.44120013    0.04873985    0.95253019    0.05110000
opls_146-215    H    0.72681008    0.33506002    0.46913980    0.05110000
opls_146-216    H    0.79307994    0.19590001    0.42120019    0.05110000
opls_146-217    H    0.45593990    0.01687010    0.74831003    0.05110000
opls_750-218    N    0.19873014    0.73710014    0.33697004    -0.26860000
opls_750-219    N    0.80126986    0.26289986    0.33697004    -0.26870000
opls_750-220    N    0.76289986    0.69873014    0.33697004    -0.26860000
opls_750-221    N    0.23710014    0.30126986    0.33697004    -0.26870000
opls_750-222    N    0.30126986    0.76289986    0.66302996    -0.26860000
opls_750-223    N    0.69873014    0.23710014    0.66302996    -0.26860000
opls_750-224    N    0.73710014    0.80126986    0.66302996    -0.26860000
opls_750-225    N    0.26289986    0.19873014    0.66302996    -0.26870000
