#======================================================================
# Crystal Data Generated By AuToFF
#----------------------------------------------------------------------

data_AuToFF_phase_1

_cell_length_a                         37.2204
_cell_length_b                         37.2204
_cell_length_c                         3.8725
_cell_angle_alpha                      90.00
_cell_angle_beta                       90.00
_cell_angle_gamma                      120.00
_symmetry_space_group_name_H-M_alt     'P 1'
_symmetry_space_group_IT_number        1

loop_
_space_group_symop_operation_xyz
   'x, y, z'

loop_
   _atom_site_label
   _atom_site_type_symbol
   _atom_site_fract_x
   _atom_site_fract_y
   _atom_site_fract_z
   _atom_site_charge
opls_700-0    C    0.35755007    0.64709012    0.65747966    0.07330000
opls_700-1    C    0.38301995    0.62634017    0.66173015    0.06720000
opls_700-2    C    0.39158000    0.56690010    0.51175985    -0.00380000
opls_522-3    C    0.44542982    0.62547989    0.83339961    -0.16340000
opls_700-4    C    0.47150002    0.51461990    0.54366946    -0.02750000
opls_523-5    C    0.48556993    0.45755001    0.55146030    -0.24170000
opls_181-6    C    0.40091003    0.40388989    0.75508070    -0.18490000
opls_522-7    C    0.40450986    0.51097993    0.35962040    -0.20530000
opls_470-8    C    0.66490000    0.49903998    0.21920981    0.60910000
opls_145-9    C    0.37658984    0.69056993    0.65743060    -0.16500000
opls_523-10    C    0.36883009    0.58786008    0.49596901    -0.15890000
opls_521-11    C    0.43083992    0.58697994    0.67497999    0.19840000
opls_523-12    C    0.42152012    0.64470008    0.83227889    -0.10970000
opls_521-13    C    0.44290993    0.53171995    0.52967076    0.19670000
opls_166-14    C    0.45681005    0.47165011    0.57002970    0.24700000
opls_700-15    C    0.37764987    0.52731992    0.36028922    -0.06720000
opls_700-16    C    0.35290999    0.71045992    0.65747966    0.07330000
opls_700-17    C    0.37366005    0.75668002    0.66173015    0.06720000
opls_700-18    C    0.43310015    0.82468005    0.51175985    -0.00380000
opls_522-19    C    0.37451994    0.81994992    0.83339961    -0.16340000
opls_700-20    C    0.48538004    0.95688006    0.54366946    -0.02750000
opls_523-21    C    0.54245003    0.02801996    0.55146030    -0.24170000
opls_181-22    C    0.59611008    0.99702021    0.75508070    -0.18490000
opls_522-23    C    0.48902011    0.89353012    0.35962040    -0.20530000
opls_470-24    C    0.50095990    0.16586001    0.21920981    0.60910000
opls_145-25    C    0.30943005    0.68602005    0.65743060    -0.16500000
opls_523-26    C    0.41214008    0.78097004    0.49596901    -0.15890000
opls_521-27    C    0.41302006    0.84385991    0.67497999    0.19840000
opls_523-28    C    0.35529996    0.77682005    0.83227889    -0.10970000
opls_521-29    C    0.46828005    0.91119014    0.52967076    0.19670000
opls_166-30    C    0.52834990    0.98515999    0.57002970    0.24700000
opls_700-31    C    0.47268014    0.85033013    0.36028922    -0.06720000
opls_700-32    C    0.28953994    0.64244996    0.65747966    0.07330000
opls_700-33    C    0.24332015    0.61698012    0.66173015    0.06720000
opls_700-34    C    0.17532001    0.60842017    0.51175985    -0.00380000
opls_522-35    C    0.18004997    0.55457019    0.83339961    -0.16340000
opls_700-36    C    0.04311994    0.52850004    0.54366946    -0.02750000
opls_523-37    C    0.97198004    0.51443003    0.55146030    -0.24170000
opls_181-38    C    0.00297989    0.59908990    0.75508070    -0.18490000
opls_522-39    C    0.10647003    0.59548995    0.35962040    -0.20530000
opls_470-40    C    0.83414010    0.33510001    0.21920981    0.60910000
opls_145-41    C    0.31398010    0.62341002    0.65743060    -0.16500000
opls_523-42    C    0.21902998    0.63117019    0.49596901    -0.15890000
opls_521-43    C    0.15614002    0.56916015    0.67497999    0.19840000
opls_523-44    C    0.22318008    0.57848017    0.83227889    -0.10970000
opls_521-45    C    0.08881002    0.55708990    0.52967076    0.19670000
opls_166-46    C    0.01484005    0.54318990    0.57002970    0.24700000
opls_700-47    C    0.14966999    0.62234995    0.36028922    -0.06720000
opls_700-48    C    0.64244993    0.35290988    0.65747966    0.07330000
opls_700-49    C    0.61698020    0.37366014    0.66173015    0.06720000
opls_700-50    C    0.60842000    0.43309990    0.51175985    -0.00380000
opls_522-51    C    0.55457018    0.37452011    0.83339961    -0.16340000
opls_700-52    C    0.52849998    0.48538010    0.54366946    -0.02750000
opls_523-53    C    0.51443007    0.54244999    0.55146030    -0.24170000
opls_181-54    C    0.59908997    0.59611011    0.75508070    -0.18490000
opls_522-55    C    0.59549014    0.48902007    0.35962040    -0.20530000
opls_470-56    C    0.33510000    0.50096002    0.21920981    0.60910000
opls_145-57    C    0.62341016    0.30943007    0.65743060    -0.16500000
opls_523-58    C    0.63116991    0.41213992    0.49596901    -0.15890000
opls_521-59    C    0.56916008    0.41302006    0.67497999    0.19840000
opls_523-60    C    0.57847988    0.35529992    0.83227889    -0.10970000
opls_521-61    C    0.55709007    0.46828005    0.52967076    0.19670000
opls_166-62    C    0.54318995    0.52834989    0.57002970    0.24700000
opls_700-63    C    0.62235013    0.47268008    0.36028922    -0.06720000
opls_700-64    C    0.64709001    0.28954008    0.65747966    0.07330000
opls_700-65    C    0.62633995    0.24331998    0.66173015    0.06720000
opls_700-66    C    0.56689985    0.17531995    0.51175985    -0.00380000
opls_522-67    C    0.62548006    0.18005008    0.83339961    -0.16340000
opls_700-68    C    0.51461996    0.04311994    0.54366946    -0.02750000
opls_523-69    C    0.45754997    0.97198004    0.55146030    -0.24170000
opls_181-70    C    0.40389008    0.00298010    0.75508070    -0.18490000
opls_522-71    C    0.51097989    0.10646988    0.35962040    -0.20530000
opls_470-72    C    0.49904010    0.83413999    0.21920981    0.60910000
opls_145-73    C    0.69056995    0.31397995    0.65743060    -0.16500000
opls_523-74    C    0.58785992    0.21902996    0.49596901    -0.15890000
opls_521-75    C    0.58697994    0.15614009    0.67497999    0.19840000
opls_523-76    C    0.64470004    0.22317995    0.83227889    -0.10970000
opls_521-77    C    0.53171995    0.08880986    0.52967076    0.19670000
opls_166-78    C    0.47165010    0.01484001    0.57002970    0.24700000
opls_700-79    C    0.52731986    0.14966987    0.36028922    -0.06720000
opls_700-80    C    0.71046006    0.35755004    0.65747966    0.07330000
opls_700-81    C    0.75667985    0.38301988    0.66173015    0.06720000
opls_700-82    C    0.82468014    0.39158015    0.51175985    -0.00380000
opls_522-83    C    0.81995018    0.44543012    0.83339961    -0.16340000
opls_700-84    C    0.95688006    0.47149996    0.54366946    -0.02750000
opls_523-85    C    0.02801996    0.48556997    0.55146030    -0.24170000
opls_181-86    C    0.99702011    0.40091010    0.75508070    -0.18490000
opls_522-87    C    0.89352997    0.40451005    0.35962040    -0.20530000
opls_470-88    C    0.16585990    0.66489999    0.21920981    0.60910000
opls_145-89    C    0.68601990    0.37658998    0.65743060    -0.16500000
opls_523-90    C    0.78097017    0.36883012    0.49596901    -0.15890000
opls_521-91    C    0.84386013    0.43084016    0.67497999    0.19840000
opls_523-92    C    0.77682008    0.42152014    0.83227889    -0.10970000
opls_521-93    C    0.91118998    0.44291010    0.52967076    0.19670000
opls_166-94    C    0.98515995    0.45681010    0.57002970    0.24700000
opls_700-95    C    0.85033001    0.37765005    0.36028922    -0.06720000
opls_520-96    N    0.45474995    0.56896997    0.68009038    -0.27780000
opls_520-97    N    0.43103020    0.88578018    0.68009038    -0.27780000
opls_520-98    N    0.11422001    0.54525016    0.68009038    -0.27780000
opls_520-99    N    0.54525005    0.43103003    0.68009038    -0.27780000
opls_520-100    N    0.56896996    0.11422013    0.68009038    -0.27780000
opls_520-101    N    0.88578014    0.45475015    0.68009038    -0.27790000
opls_526-102    H    0.34116989    0.57572996    0.34058877    0.10870000
opls_525-103    H    0.47514003    0.64030005    0.96408005    0.12370000
opls_185-104    H    0.41917003    0.40550000    0.98656940    0.07860000
opls_185-105    H    0.36774983    0.38912992    0.82944093    0.07820000
opls_146-106    H    0.41005002    0.70907007    0.65860039    0.12970000
opls_526-107    H    0.43305011    0.67362996    0.97103938    0.12540000
opls_526-108    H    0.47471998    0.42466001    0.54543060    0.12500000
opls_185-109    H    0.40383993    0.38427012    0.55442995    0.07850000
opls_525-110    H    0.39529996    0.48205999    0.22736992    0.12670000
opls_270-111    H    0.72569008    0.51678998    0.23912976    0.32480000
opls_526-112    H    0.42427010    0.76544008    0.34058877    0.10870000
opls_525-113    H    0.35970013    0.83484019    0.96408005    0.12360000
opls_185-114    H    0.59450016    0.01367012    0.98656940    0.07860000
opls_185-115    H    0.61086993    0.97861996    0.82944093    0.07820000
opls_146-116    H    0.29092998    0.70098012    0.65860039    0.12970000
opls_526-117    H    0.32636990    0.75942000    0.97103938    0.12540000
opls_526-118    H    0.57533997    0.05005986    0.54543060    0.12500000
opls_185-119    H    0.61573019    0.01957013    0.55442995    0.07850000
opls_525-120    H    0.51793995    0.91324017    0.22736992    0.12670000
opls_270-121    H    0.48320999    0.20889991    0.23912976    0.32480000
opls_526-122    H    0.23456001    0.65882997    0.34058877    0.10870000
opls_525-123    H    0.16515999    0.52486008    0.96408005    0.12370000
opls_185-124    H    0.98632981    0.58082988    0.98656940    0.07860000
opls_185-125    H    0.02137997    0.63225011    0.82944093    0.07820000
opls_146-126    H    0.29902015    0.58995012    0.65860039    0.12970000
opls_526-127    H    0.24058000    0.56695004    0.97103938    0.12540000
opls_526-128    H    0.94994004    0.52528013    0.54543060    0.12500000
opls_185-129    H    0.98043003    0.59616006    0.55442995    0.07850000
opls_525-130    H    0.08675997    0.60470016    0.22736992    0.12670000
opls_270-131    H    0.79109994    0.27431011    0.23912976    0.32480000
opls_526-132    H    0.65883011    0.42427004    0.34058877    0.10870000
opls_525-133    H    0.52485997    0.35969995    0.96408005    0.12370000
opls_185-134    H    0.58082997    0.59450000    0.98656940    0.07860000
opls_185-135    H    0.63225017    0.61087008    0.82944093    0.07820000
opls_146-136    H    0.58994998    0.29092993    0.65860039    0.12970000
opls_526-137    H    0.56694989    0.32637004    0.97103938    0.12540000
opls_526-138    H    0.52528002    0.57533999    0.54543060    0.12500000
opls_185-139    H    0.59616022    0.61573019    0.55442995    0.07850000
opls_525-140    H    0.60470004    0.51794001    0.22736992    0.12670000
opls_270-141    H    0.27430992    0.48321002    0.23912976    0.32470000
opls_526-142    H    0.57572990    0.23455992    0.34058877    0.10870000
opls_525-143    H    0.64030002    0.16516012    0.96408005    0.12370000
opls_185-144    H    0.40549984    0.98632988    0.98656940    0.07860000
opls_185-145    H    0.38913007    0.02138004    0.82944093    0.07820000
opls_146-146    H    0.70907002    0.29901988    0.65860039    0.12970000
opls_526-147    H    0.67363010    0.24058000    0.97103938    0.12540000
opls_526-148    H    0.42466003    0.94994014    0.54543060    0.12500000
opls_185-149    H    0.38426981    0.98042987    0.55442995    0.07850000
opls_525-150    H    0.48206020    0.08676014    0.22736992    0.12670000
opls_270-151    H    0.51679001    0.79110009    0.23912976    0.32480000
opls_526-152    H    0.76543999    0.34117003    0.34058877    0.10870000
opls_525-153    H    0.83484001    0.47513992    0.96408005    0.12100000
opls_185-154    H    0.01367019    0.41917012    0.98656940    0.07860000
opls_185-155    H    0.97862003    0.36774989    0.82944093    0.07820000
opls_146-156    H    0.70097985    0.41004988    0.65860039    0.12970000
opls_526-157    H    0.75942000    0.43304996    0.97103938    0.12540000
opls_526-158    H    0.05006011    0.47472018    0.54543060    0.12500000
opls_185-159    H    0.01956997    0.40383994    0.55442995    0.07850000
opls_525-160    H    0.91324018    0.39530015    0.22736992    0.12670000
opls_270-161    H    0.20890006    0.72568989    0.23912976    0.32480000
opls_268-162    O    0.69842988    0.49668997    0.35399096    -0.46660000
opls_179-163    O    0.41402993    0.44454007    0.62614074    -0.18560000
opls_269-164    O    0.67110014    0.52490010    0.99829051    -0.43310000
opls_268-165    O    0.50331008    0.20174004    0.35399096    -0.46660000
opls_179-166    O    0.55546004    0.96949011    0.62614074    -0.18560000
opls_269-167    O    0.47509993    0.14619991    0.99829051    -0.43310000
opls_268-168    O    0.79826004    0.30157000    0.35399096    -0.46660000
opls_179-169    O    0.03051019    0.58597014    0.62614074    -0.18560000
opls_269-170    O    0.85379992    0.32890000    0.99829051    -0.43310000
opls_268-171    O    0.30157012    0.50331003    0.35399096    -0.46660000
opls_179-172    O    0.58597007    0.55545993    0.62614074    -0.18560000
opls_269-173    O    0.32889986    0.47509990    0.99829051    -0.43310000
opls_268-174    O    0.49668992    0.79825996    0.35399096    -0.46660000
opls_179-175    O    0.44453996    0.03050989    0.62614074    -0.18560000
opls_269-176    O    0.52490007    0.85380009    0.99829051    -0.43310000
opls_268-177    O    0.20173996    0.69843000    0.35399096    -0.46660000
opls_179-178    O    0.96948997    0.41403018    0.62614074    -0.18560000
opls_269-179    O    0.14620008    0.67110000    0.99829051    -0.43310000
