#======================================================================
# Crystal Data Generated By AuToFF
#----------------------------------------------------------------------

data_AuToFF_phase_1

_cell_length_a                         42.8965
_cell_length_b                         42.8965
_cell_length_c                         3.9522
_cell_angle_alpha                      90.00
_cell_angle_beta                       90.00
_cell_angle_gamma                      120.00
_symmetry_space_group_name_H-M_alt     'P 1'
_symmetry_space_group_IT_number        1

loop_
_space_group_symop_operation_xyz
   'x, y, z'

loop_
   _atom_site_label
   _atom_site_type_symbol
   _atom_site_fract_x
   _atom_site_fract_y
   _atom_site_fract_z
   _atom_site_charge
opls_700-0    C    0.35120996    0.64751008    0.00000000    0.11310000
opls_145-1    C    0.31427992    0.62982988    0.00000000    -0.13790000
opls_700-2    C    0.65161015    0.35512010    0.00000000    0.12590000
opls_145-3    C    0.68833996    0.36998008    0.00000000    -0.13290000
opls_145-4    C    0.59743993    0.36344001    0.00000000    -0.07620000
opls_145-5    C    0.58198010    0.38576012    0.00000000    -0.10390000
opls_145-6    C    0.60413004    0.42359001    0.00000000    0.23110000
opls_145-7    C    0.64209992    0.43897004    0.00000000    -0.09820000
opls_145-8    C    0.65755003    0.41663001    0.00000000    -0.07620000
opls_700-9    C    0.63533012    0.37869003    0.00000000    0.08400000
opls_142-10    C    0.60583995    0.48092005    0.00000000    0.04870000
opls_567-11    C    0.54762983    0.52645987    0.00000000    -0.00050000
opls_716-12    C    0.58364005    0.55367992    0.00000000    -0.09710000
opls_716-13    C    0.60662996    0.53970986    0.00000000    -0.09990000
opls_567-14    C    0.58746993    0.50229990    0.00000000    -0.00740000
opls_567-15    C    0.47758996    0.55821000    0.00000000    -0.00790000
opls_716-16    C    0.45833999    0.52069990    0.00000000    -0.09650000
opls_716-17    C    0.48129990    0.50670992    0.00000000    -0.09710000
opls_567-18    C    0.51729994    0.53393993    0.00000000    -0.00180000
opls_142-19    C    0.46039992    0.58071988    0.00000000    0.04860000
opls_145-20    C    0.42698998    0.62531003    0.00000000    -0.09820000
opls_145-21    C    0.40866994    0.64495985    0.00000000    -0.07620000
opls_700-22    C    0.37056004    0.62679000    0.00000000    0.08400000
opls_145-23    C    0.35106002    0.58865997    0.00000000    -0.07620000
opls_145-24    C    0.36938000    0.56898997    0.00000000    -0.10390000
opls_145-25    C    0.40738000    0.58711997    0.00000000    0.23070000
opls_700-26    C    0.35248985    0.70369987    0.00000000    0.11310000
opls_145-27    C    0.37016997    0.68445006    0.00000000    -0.13790000
opls_700-28    C    0.64487988    0.29648991    0.00000000    0.12590000
opls_145-29    C    0.63002002    0.31835994    0.00000000    -0.13290000
opls_145-30    C    0.63656005    0.23399990    0.00000000    -0.07620000
opls_145-31    C    0.61424003    0.19622008    0.00000000    -0.10390000
opls_145-32    C    0.57640985    0.18053991    0.00000000    0.23110000
opls_145-33    C    0.56102999    0.20313001    0.00000000    -0.09820000
opls_145-34    C    0.58337006    0.24092006    0.00000000    -0.07620000
opls_700-35    C    0.62131014    0.25664007    0.00000000    0.08400000
opls_142-36    C    0.51908000    0.12491999    0.00000000    0.04870000
opls_567-37    C    0.47353996    0.02116989    0.00000000    -0.00050000
opls_716-38    C    0.44632012    0.02996006    0.00000000    -0.09710000
opls_716-39    C    0.46028990    0.06691995    0.00000000    -0.09990000
opls_567-40    C    0.49769999    0.08517001    0.00000000    -0.00740000
opls_567-41    C    0.44178993    0.91937999    0.00000000    -0.00790000
opls_716-42    C    0.47930011    0.93764001    0.00000000    -0.09720000
opls_716-43    C    0.49328986    0.97458994    0.00000000    -0.09710000
opls_567-44    C    0.46605992    0.98335992    0.00000000    -0.00050000
opls_142-45    C    0.41928009    0.87968008    0.00000000    0.04860000
opls_145-46    C    0.37469009    0.80168002    0.00000000    -0.09820000
opls_145-47    C    0.35503994    0.76370989    0.00000000    -0.07620000
opls_700-48    C    0.37321000    0.74376990    0.00000000    0.08400000
opls_145-49    C    0.41134001    0.76240005    0.00000000    -0.07620000
opls_145-50    C    0.43101015    0.80039010    0.00000000    -0.10390000
opls_145-51    C    0.41288016    0.82026011    0.00000000    0.23070000
opls_700-52    C    0.29629996    0.64879005    0.00000000    0.11310000
opls_145-53    C    0.31555011    0.68572006    0.00000000    -0.13800000
opls_700-54    C    0.70350997    0.34838999    0.00000000    0.12590000
opls_145-55    C    0.68164002    0.31165998    0.00000000    -0.13290000
opls_145-56    C    0.76600001    0.40256009    0.00000000    -0.07620000
opls_145-57    C    0.80378001    0.41802007    0.00000000    -0.10390000
opls_145-58    C    0.81946011    0.39587009    0.00000000    0.23110000
opls_145-59    C    0.79687009    0.35789995    0.00000000    -0.09820000
opls_145-60    C    0.75907992    0.34244993    0.00000000    -0.07620000
opls_700-61    C    0.74335998    0.36466990    0.00000000    0.08400000
opls_142-62    C    0.87508005    0.39415997    0.00000000    0.04870000
opls_567-63    C    0.97883007    0.45236997    0.00000000    -0.00050000
opls_716-64    C    0.97004007    0.41636002    0.00000000    -0.09710000
opls_716-65    C    0.93308000    0.39336992    0.00000000    -0.09990000
opls_567-66    C    0.91483008    0.41253009    0.00000000    -0.00740000
opls_567-67    C    0.08062011    0.52241002    0.00000000    -0.00790000
opls_716-68    C    0.06236013    0.54166009    0.00000000    -0.09730000
opls_716-69    C    0.02540987    0.51869987    0.00000000    -0.09720000
opls_567-70    C    0.01664000    0.48269988    0.00000000    -0.00050000
opls_142-71    C    0.12031999    0.53960004    0.00000000    0.04860000
opls_145-72    C    0.19831992    0.57300994    0.00000000    -0.09820000
opls_145-73    C    0.23628999    0.59133000    0.00000000    -0.07620000
opls_700-74    C    0.25622997    0.62944010    0.00000000    0.08400000
opls_145-75    C    0.23759997    0.64893998    0.00000000    -0.07620000
opls_145-76    C    0.19960985    0.63061993    0.00000000    -0.10390000
opls_145-77    C    0.17973984    0.59261992    0.00000000    0.23060000
opls_750-78    N    0.58743983    0.44569988    0.00000000    -0.25800000
opls_750-79    N    0.42532994    0.56617001    0.00000000    -0.25740000
opls_750-80    N    0.55430006    0.14173988    0.00000000    -0.25800000
opls_750-81    N    0.43383000    0.85916000    0.00000000    -0.25730000
opls_750-82    N    0.85825998    0.41255997    0.00000000    -0.25810000
opls_750-83    N    0.14084006    0.57467000    0.00000000    -0.25730000
opls_633-84    S    0.54121993    0.48330985    0.00000000    0.09630000
opls_633-85    S    0.52371996    0.57709991    0.00000000    0.09630000
opls_633-86    S    0.51668996    0.05791013    0.00000000    0.09630000
opls_633-87    S    0.42290004    0.94661995    0.00000000    0.09630000
opls_633-88    S    0.94209011    0.45878002    0.00000000    0.09630000
opls_633-89    S    0.05337987    0.47627987    0.00000000    0.09630000
opls_146-90    H    0.29812001    0.59882997    0.00000000    0.04840000
opls_146-91    H    0.70668998    0.40079990    0.00000000    0.04840000
opls_146-92    H    0.57921993    0.33259999    0.00000000    0.04840000
opls_146-93    H    0.55113993    0.37314997    0.00000000    0.04840000
opls_146-94    H    0.66044993    0.46978987    0.00000000    0.04840000
opls_146-95    H    0.68838004    0.42923989    0.00000000    0.04840000
opls_144-96    H    0.63684013    0.49571003    0.00000000    0.03340000
opls_570-97    H    0.59088991    0.58342006    0.00000000    0.04840000
opls_570-98    H    0.63732992    0.55880005    0.00000000    0.04840000
opls_570-99    H    0.42734001    0.50561004    0.00000000    0.04840000
opls_570-100    H    0.46967993    0.47599992    0.00000000    0.04840000
opls_144-101    H    0.47846008    0.61158009    0.00000000    0.03340000
opls_146-102    H    0.45799001    0.64026987    0.00000000    0.04840000
opls_146-103    H    0.42470993    0.67596003    0.00000000    0.04840000
opls_146-104    H    0.32006009    0.57351009    0.00000000    0.04840000
opls_146-105    H    0.35333011    0.53799005    0.00000000    0.04840000
opls_146-106    H    0.40117000    0.69929011    0.00000000    0.04840000
opls_146-107    H    0.59920008    0.30589005    0.00000000    0.04840000
opls_146-108    H    0.66740008    0.24662000    0.00000000    0.04840000
opls_146-109    H    0.62685004    0.17798994    0.00000000    0.04840000
opls_146-110    H    0.53021006    0.19066011    0.00000000    0.04840000
opls_146-111    H    0.57076006    0.25913997    0.00000000    0.04840000
opls_144-112    H    0.50428985    0.14112991    0.00000000    0.03340000
opls_570-113    H    0.41658015    0.00747010    0.00000000    0.04840000
opls_570-114    H    0.44119993    0.07853008    0.00000000    0.04840000
opls_570-115    H    0.49439009    0.92172995    0.00000000    0.04840000
opls_570-116    H    0.52399995    0.99367985    0.00000000    0.04840000
opls_144-117    H    0.38841996    0.86687990    0.00000000    0.03340000
opls_146-118    H    0.35972993    0.81772010    0.00000000    0.04840000
opls_146-119    H    0.32403992    0.74875005    0.00000000    0.04840000
opls_146-120    H    0.42649007    0.74655002    0.00000000    0.04840000
opls_146-121    H    0.46201009    0.81533998    0.00000000    0.04840000
opls_146-122    H    0.30070999    0.70187992    0.00000000    0.04840000
opls_146-123    H    0.69410995    0.29331005    0.00000000    0.04840000
opls_146-124    H    0.75337999    0.42078001    0.00000000    0.04840000
opls_146-125    H    0.82201003    0.44886009    0.00000000    0.04840000
opls_146-126    H    0.80934001    0.33955002    0.00000000    0.04840000
opls_146-127    H    0.74086000    0.31161987    0.00000000    0.04840000
opls_144-128    H    0.85887002    0.36316006    0.00000000    0.03340000
opls_570-129    H    0.99253007    0.40911012    0.00000000    0.04840000
opls_570-130    H    0.92146991    0.36266987    0.00000000    0.04840000
opls_570-131    H    0.07826991    0.57266001    0.00000000    0.04840000
opls_570-132    H    0.00631998    0.53031996    0.00000000    0.04840000
opls_144-133    H    0.13311997    0.52154002    0.00000000    0.03340000
opls_146-134    H    0.18228006    0.54201003    0.00000000    0.04840000
opls_146-135    H    0.25124992    0.57528992    0.00000000    0.04840000
opls_146-136    H    0.25344984    0.67993990    0.00000000    0.04840000
opls_146-137    H    0.18466003    0.64666997    0.00000000    0.04840000
