#======================================================================
# Crystal Data Generated By AuToFF
#----------------------------------------------------------------------

data_AuToFF_phase_1

_cell_length_a                         33.2774
_cell_length_b                         33.2774
_cell_length_c                         10.4587
_cell_angle_alpha                      90.00
_cell_angle_beta                       90.00
_cell_angle_gamma                      120.00
_symmetry_space_group_name_H-M_alt     'P 1'
_symmetry_space_group_IT_number        1

loop_
_space_group_symop_operation_xyz
   'x, y, z'

loop_
   _atom_site_label
   _atom_site_type_symbol
   _atom_site_fract_x
   _atom_site_fract_y
   _atom_site_fract_z
   _atom_site_charge
opls_522-0    C    0.29236000    0.28879003    0.16668993    -0.18430000
opls_521-1    C    0.29398016    0.24801008    0.16668993    0.15850000
opls_142-2    C    0.25188011    0.20360997    0.16671957    0.03470000
opls_145-3    C    0.17160985    0.15911999    0.16675973    0.23420000
opls_145-4    C    0.13124987    0.16164991    0.16679033    -0.18430000
opls_523-5    C    0.08859013    0.12230998    0.16681041    -0.17880000
opls_700-6    C    0.08537006    0.07926002    0.16681041    0.03940000
opls_523-7    C    0.12549018    0.07635014    0.16679033    -0.17880000
opls_145-8    C    0.16806000    0.11565987    0.16677025    -0.18430000
opls_531-9    C    0.04045007    0.03751995    0.16684005    0.41270000
opls_522-10    C    0.95903010    0.62212001    0.50002008    -0.18430000
opls_521-11    C    0.96064996    0.58134006    0.50002008    0.15850000
opls_142-12    C    0.91854991    0.53693995    0.50004972    0.03470000
opls_145-13    C    0.83827995    0.49244996    0.50008988    0.23420000
opls_145-14    C    0.79792014    0.49498023    0.50012047    -0.18430000
opls_523-15    C    0.75525993    0.45563996    0.50013960    -0.17880000
opls_700-16    C    0.75203986    0.41259000    0.50013960    0.03940000
opls_523-17    C    0.79215998    0.40968012    0.50012047    -0.17880000
opls_145-18    C    0.83472997    0.44899020    0.50010039    -0.18430000
opls_531-19    C    0.70711987    0.37084993    0.50017019    0.41270000
opls_522-20    C    0.62568990    0.95546005    0.83335979    -0.18430000
opls_521-21    C    0.62731006    0.91468011    0.83335979    0.15850000
opls_142-22    C    0.58521001    0.87027999    0.83339038    0.03470000
opls_145-23    C    0.50494005    0.82579001    0.83342958    0.23420000
opls_145-24    C    0.46458024    0.82832028    0.83346018    -0.18430000
opls_523-25    C    0.42192003    0.78898001    0.83348026    -0.17880000
opls_700-26    C    0.41869996    0.74593004    0.83348026    0.03940000
opls_523-27    C    0.45882009    0.74302016    0.83346018    -0.17880000
opls_145-28    C    0.50139008    0.78233024    0.83344010    -0.18430000
opls_531-29    C    0.37377997    0.70418997    0.83350990    0.41270000
opls_522-30    C    0.71120994    0.00356986    0.16668993    -0.18430000
opls_521-31    C    0.75198992    0.04596991    0.16668993    0.15850000
opls_142-32    C    0.79639010    0.04827012    0.16671957    0.03470000
opls_145-33    C    0.84087991    0.01248999    0.16675973    0.23420000
opls_145-34    C    0.83834985    0.96959999    0.16679033    -0.18430000
opls_523-35    C    0.87769004    0.96627997    0.16681041    -0.17880000
opls_700-36    C    0.92073990    0.00610984    0.16681041    0.03940000
opls_523-37    C    0.92364987    0.04914003    0.16679033    -0.17880000
opls_145-38    C    0.88434007    0.05240003    0.16677025    -0.18430000
opls_531-39    C    0.96247999    0.00293000    0.16684005    0.41270000
opls_522-40    C    0.37788022    0.33690018    0.50002008    -0.18430000
opls_521-41    C    0.41866002    0.37929989    0.50002008    0.15850000
opls_142-42    C    0.46305990    0.38160010    0.50004972    0.03470000
opls_145-43    C    0.50755001    0.34581997    0.50008988    0.23420000
opls_145-44    C    0.50501995    0.30292997    0.50012047    -0.18430000
opls_523-45    C    0.54435984    0.29960995    0.50013960    -0.17880000
opls_700-46    C    0.58741017    0.33944017    0.50013960    0.03940000
opls_523-47    C    0.59031997    0.38247001    0.50012047    -0.17880000
opls_145-48    C    0.55100987    0.38573000    0.50010039    -0.18430000
opls_531-49    C    0.62915008    0.33625998    0.50017019    0.41270000
opls_522-50    C    0.04454002    0.67024023    0.83335979    -0.18430000
opls_521-51    C    0.08531983    0.71263993    0.83335979    0.15850000
opls_142-52    C    0.12972001    0.71494014    0.83339038    0.03470000
opls_145-53    C    0.17421012    0.67916001    0.83342958    0.23420000
opls_145-54    C    0.17168005    0.63627001    0.83346018    -0.18430000
opls_523-55    C    0.21101994    0.63294999    0.83348026    -0.17880000
opls_700-56    C    0.25406997    0.67278021    0.83348026    0.03940000
opls_523-57    C    0.25698007    0.71581005    0.83346018    -0.17880000
opls_145-58    C    0.21766997    0.71907005    0.83344010    -0.18430000
opls_531-59    C    0.29580989    0.66960003    0.83350990    0.41270000
opls_522-60    C    0.99643006    0.70764011    0.16668993    -0.18430000
opls_521-61    C    0.95402991    0.70602001    0.16668993    0.15850000
opls_142-62    C    0.95173026    0.74812026    0.16671957    0.03470000
opls_145-63    C    0.98750993    0.82839002    0.16675973    0.23420000
opls_145-64    C    0.03039998    0.86875010    0.16679033    -0.18430000
opls_523-65    C    0.03372013    0.91141005    0.16681041    -0.17880000
opls_700-66    C    0.99389004    0.91463014    0.16681041    0.03940000
opls_523-67    C    0.95086012    0.87451018    0.16679033    -0.17880000
opls_145-68    C    0.94759993    0.83194010    0.16677025    -0.18430000
opls_531-69    C    0.99706994    0.95955005    0.16684005    0.41270000
opls_522-70    C    0.66310016    0.04097009    0.50002008    -0.18430000
opls_521-71    C    0.62070001    0.03934999    0.50002008    0.15850000
opls_142-72    C    0.61839988    0.08144989    0.50004972    0.03470000
opls_145-73    C    0.65418003    0.16172000    0.50008988    0.23420000
opls_145-74    C    0.69707008    0.20208008    0.50012047    -0.18430000
opls_523-75    C    0.70038993    0.24474003    0.50013960    -0.17880000
opls_700-76    C    0.66056014    0.24796012    0.50013960    0.03940000
opls_523-77    C    0.61753022    0.20784016    0.50012047    -0.17880000
opls_145-78    C    0.61427002    0.16527008    0.50010039    -0.18430000
opls_531-79    C    0.66374004    0.29288003    0.50017019    0.41270000
opls_522-80    C    0.32975996    0.37431014    0.83335979    -0.18430000
opls_521-81    C    0.28736012    0.37269003    0.83335979    0.15850000
opls_142-82    C    0.28505999    0.41478993    0.83339038    0.03470000
opls_145-83    C    0.32084014    0.49506004    0.83342958    0.23420000
opls_145-84    C    0.36373018    0.53542012    0.83346018    -0.18430000
opls_523-85    C    0.36705004    0.57808007    0.83348026    -0.17880000
opls_700-86    C    0.32721994    0.58130016    0.83348026    0.03940000
opls_523-87    C    0.28419002    0.54118020    0.83346018    -0.17880000
opls_145-88    C    0.28093013    0.49861012    0.83344010    -0.18430000
opls_531-89    C    0.33040015    0.62622007    0.83350990    0.41270000
opls_522-90    C    0.28878994    0.29235989    0.83331007    -0.18430000
opls_521-91    C    0.24800991    0.29397999    0.83331007    0.15850000
opls_142-92    C    0.20361018    0.25188009    0.83328043    0.03470000
opls_145-93    C    0.15911991    0.17160998    0.83324027    0.23420000
opls_145-94    C    0.16164988    0.13124990    0.83320967    -0.18430000
opls_523-95    C    0.12231008    0.08858995    0.83318959    -0.17880000
opls_700-96    C    0.07925990    0.08536986    0.83318959    0.03940000
opls_523-97    C    0.07635011    0.12549017    0.83320967    -0.17880000
opls_145-98    C    0.11565982    0.16805990    0.83322975    -0.18430000
opls_531-99    C    0.03751990    0.04044995    0.83315995    0.41270000
opls_522-100    C    0.95546021    0.62569021    0.16664021    -0.18430000
opls_521-101    C    0.91468001    0.62730997    0.16664021    0.15850000
opls_142-102    C    0.87027997    0.58521007    0.16660962    0.03470000
opls_145-103    C    0.82579001    0.50493996    0.16657042    0.23420000
opls_145-104    C    0.82832015    0.46458022    0.16653982    -0.18430000
opls_523-105    C    0.78897988    0.42191993    0.16651974    -0.17880000
opls_700-106    C    0.74593017    0.41870019    0.16651974    0.03940000
opls_523-107    C    0.74302021    0.45882015    0.16653982    -0.17880000
opls_145-108    C    0.78233010    0.50139023    0.16655990    -0.18430000
opls_531-109    C    0.70419000    0.37377993    0.16649010    0.41270000
opls_522-110    C    0.62212002    0.95903025    0.49997992    -0.18430000
opls_521-111    C    0.58134011    0.96065001    0.49997992    0.15850000
opls_142-112    C    0.53694008    0.91855011    0.49995028    0.03470000
opls_145-113    C    0.49245011    0.83828000    0.49991012    0.23420000
opls_145-114    C    0.49498025    0.79792027    0.49987953    -0.18430000
opls_523-115    C    0.45563999    0.75525997    0.49986040    -0.17880000
opls_700-116    C    0.41258998    0.75204023    0.49986040    0.03940000
opls_523-117    C    0.40968002    0.79216019    0.49987953    -0.17880000
opls_145-118    C    0.44899020    0.83473027    0.49989961    -0.18430000
opls_531-119    C    0.37085010    0.70711997    0.49982981    0.41270000
opls_522-120    C    0.00356997    0.71120997    0.83331007    -0.18430000
opls_521-121    C    0.04597025    0.75199026    0.83331007    0.15850000
opls_142-122    C    0.04827014    0.79639003    0.83328043    0.03470000
opls_145-123    C    0.01248987    0.84088001    0.83324027    0.23420000
opls_145-124    C    0.96959996    0.83835009    0.83320967    -0.18430000
opls_523-125    C    0.96628014    0.87769002    0.83318959    -0.17880000
opls_700-126    C    0.00611004    0.92073998    0.83318959    0.03940000
opls_523-127    C    0.04914022    0.92365021    0.83320967    -0.17880000
opls_145-128    C    0.05240013    0.88434013    0.83322975    -0.18430000
opls_531-129    C    0.00293012    0.96248005    0.83315995    0.41270000
opls_522-130    C    0.67024007    0.04453995    0.16664021    -0.18430000
opls_521-131    C    0.71263987    0.08531989    0.16664021    0.15850000
opls_142-132    C    0.71493994    0.12972001    0.16660962    0.03470000
opls_145-133    C    0.67915997    0.17420999    0.16657042    0.23420000
opls_145-134    C    0.63627006    0.17168007    0.16653982    -0.18430000
opls_523-135    C    0.63294994    0.21101999    0.16651974    -0.17880000
opls_700-136    C    0.67277984    0.25406996    0.16651974    0.03940000
opls_523-137    C    0.71581002    0.25698019    0.16653982    -0.17880000
opls_145-138    C    0.71906993    0.21767011    0.16655990    -0.18430000
opls_531-139    C    0.66959992    0.29581003    0.16649010    0.41270000
opls_522-140    C    0.33689987    0.37787999    0.49997992    -0.18430000
opls_521-141    C    0.37929998    0.41865994    0.49997992    0.15850000
opls_142-142    C    0.38160004    0.46306005    0.49995028    0.03470000
opls_145-143    C    0.34582007    0.50755004    0.49991012    0.23420000
opls_145-144    C    0.30293016    0.50502011    0.49987953    -0.18430000
opls_523-145    C    0.29961005    0.54436004    0.49986040    -0.17880000
opls_700-146    C    0.33943994    0.58741000    0.49986040    0.03940000
opls_523-147    C    0.38247012    0.59032023    0.49987953    -0.17880000
opls_145-148    C    0.38573003    0.55101015    0.49989961    -0.18430000
opls_531-149    C    0.33626002    0.62915007    0.49982981    0.41270000
opls_522-150    C    0.70764009    0.99643014    0.83331007    -0.18430000
opls_521-151    C    0.70602002    0.95403009    0.83331007    0.15850000
opls_142-152    C    0.74812016    0.95173023    0.83328043    0.03470000
opls_145-153    C    0.82838992    0.98751001    0.83324027    0.23420000
opls_145-154    C    0.86874986    0.03040001    0.83320967    -0.18430000
opls_523-155    C    0.91141007    0.03372003    0.83318959    -0.17880000
opls_700-156    C    0.91463005    0.99389016    0.83318959    0.03940000
opls_523-157    C    0.87450984    0.95085997    0.83320967    -0.17880000
opls_145-158    C    0.83194005    0.94759997    0.83322975    -0.18430000
opls_531-159    C    0.95954998    0.99707000    0.83315995    0.41270000
opls_522-160    C    0.37431018    0.32976012    0.16664021    -0.18430000
opls_521-161    C    0.37269011    0.28736007    0.16664021    0.15850000
opls_142-162    C    0.41478995    0.28506020    0.16660962    0.03470000
opls_145-163    C    0.49506002    0.32083999    0.16657042    0.23420000
opls_145-164    C    0.53541996    0.36372999    0.16653982    -0.18430000
opls_523-165    C    0.57807987    0.36705001    0.16651974    -0.17880000
opls_700-166    C    0.58130015    0.32722014    0.16651974    0.03940000
opls_523-167    C    0.54117994    0.28418995    0.16653982    -0.17880000
opls_145-168    C    0.49860984    0.28092995    0.16655990    -0.18430000
opls_531-169    C    0.62622008    0.33039997    0.16649010    0.41270000
opls_522-170    C    0.04096999    0.66310016    0.49997992    -0.18430000
opls_521-171    C    0.03934992    0.62070011    0.49997992    0.15850000
opls_142-172    C    0.08145006    0.61840025    0.49995028    0.03470000
opls_145-173    C    0.16172012    0.65418003    0.49991012    0.23420000
opls_145-174    C    0.20208006    0.69707003    0.49987953    -0.18430000
opls_523-175    C    0.24473997    0.70039005    0.49986040    -0.17880000
opls_700-176    C    0.24795996    0.66056018    0.49986040    0.03940000
opls_523-177    C    0.20784004    0.61752999    0.49987953    -0.17880000
opls_145-178    C    0.16526995    0.61427000    0.49989961    -0.18430000
opls_531-179    C    0.29287988    0.66374002    0.49982981    0.41250000
opls_523-180    C    0.33333011    0.33026014    0.16666985    -0.12970000
opls_523-181    C    0.00000013    0.66360018    0.50000000    -0.12970000
opls_523-182    C    0.66974007    0.00306984    0.16666985    -0.12970000
opls_523-183    C    0.33640012    0.33640017    0.50000000    -0.12970000
opls_523-184    C    0.99693012    0.66667002    0.16666985    -0.12970000
opls_523-185    C    0.66359992    0.00000000    0.50000000    -0.12970000
opls_523-186    C    0.33026010    0.33332998    0.83333015    -0.12970000
opls_523-187    C    0.00307014    0.66974021    0.83333015    -0.12970000
opls_523-188    C    0.66667023    0.99693016    0.83333015    -0.12970000
opls_750-189    N    0.45418995    0.32177999    0.16660006    -0.16140000
opls_520-190    N    0.03897019    0.99695028    0.16684961    -0.36740000
opls_750-191    N    0.12086005    0.65510997    0.49993020    -0.16230000
opls_520-192    N    0.70563982    0.33027992    0.50017975    -0.36740000
opls_750-193    N    0.78752015    0.98845001    0.83326991    -0.16140000
opls_520-194    N    0.37229992    0.66361996    0.83352042    -0.36740000
opls_750-195    N    0.67822001    0.13240989    0.16660006    -0.16230000
opls_520-196    N    0.00305011    0.04202009    0.16684961    -0.36750000
opls_750-197    N    0.34488998    0.46574022    0.49993020    -0.16230000
opls_520-198    N    0.66971991    0.37535007    0.50017975    -0.36740000
opls_750-199    N    0.01155008    0.79908026    0.83326991    -0.16230000
opls_520-200    N    0.33638001    0.70869011    0.83352042    -0.36740000
opls_750-201    N    0.86759004    0.54581012    0.16660006    -0.16230000
opls_520-202    N    0.95797987    0.96102997    0.16684961    -0.36740000
opls_750-203    N    0.53426014    0.87914010    0.49993020    -0.16140000
opls_520-204    N    0.62464997    0.29435995    0.50017975    -0.36740000
opls_750-205    N    0.20091994    0.21248014    0.83326991    -0.16230000
opls_520-206    N    0.29131007    0.62769999    0.83352042    -0.36740000
opls_750-207    N    0.32178010    0.45419023    0.83339994    -0.16140000
opls_520-208    N    0.99694990    0.03897003    0.83315039    -0.36740000
opls_750-209    N    0.98845019    0.78752021    0.16673009    -0.16140000
opls_520-210    N    0.66362000    0.37230001    0.16647958    -0.36740000
opls_750-211    N    0.65510982    0.12085990    0.50006980    -0.16230000
opls_520-212    N    0.33028010    0.70564005    0.49982025    -0.36740000
opls_750-213    N    0.13240996    0.67822001    0.83339994    -0.16140000
opls_520-214    N    0.04202008    0.00305006    0.83315039    -0.36740000
opls_750-215    N    0.79908006    0.01154999    0.16673009    -0.16230000
opls_520-216    N    0.70868988    0.33638004    0.16647958    -0.36740000
opls_750-217    N    0.46574017    0.34489003    0.50006980    -0.16230000
opls_520-218    N    0.37534998    0.66972008    0.49982025    -0.36740000
opls_750-219    N    0.54581011    0.86759011    0.83339994    -0.16230000
opls_520-220    N    0.96103019    0.95798025    0.83315039    -0.36740000
opls_750-221    N    0.21247991    0.20092009    0.16673009    -0.16240000
opls_520-222    N    0.62769981    0.29130989    0.16647958    -0.36740000
opls_750-223    N    0.87914002    0.53426013    0.50006980    -0.16140000
opls_520-224    N    0.29435992    0.62464993    0.49982025    -0.36740000
opls_520-225    N    0.33332995    0.24708986    0.16666985    -0.24650000
opls_520-226    N    0.99999997    0.58042990    0.50000000    -0.24650000
opls_520-227    N    0.75291019    0.08624012    0.16666985    -0.24650000
opls_520-228    N    0.41956999    0.41958016    0.50000000    -0.24460000
opls_520-229    N    0.91375986    0.66667002    0.16666985    -0.24650000
opls_520-230    N    0.58042004    0.00000000    0.50000000    -0.24650000
opls_520-231    N    0.24708984    0.33332998    0.83333015    -0.24650000
opls_520-232    N    0.08624009    0.75291014    0.83333015    -0.24650000
opls_520-233    N    0.66667024    0.91376023    0.83333015    -0.24650000
opls_525-234    H    0.25847000    0.28608002    0.16671001    0.12140000
opls_144-235    H    0.25756014    0.17379013    0.16671001    0.07250000
opls_146-236    H    0.13506994    0.19600008    0.16677981    0.12430000
opls_526-237    H    0.05667977    0.12366985    0.16682953    0.12270000
opls_526-238    H    0.12177002    0.04202009    0.16679033    0.12310000
opls_146-239    H    0.19912003    0.11272015    0.16675017    0.12310000
opls_525-240    H    0.92514010    0.61940999    0.50004016    0.12140000
opls_144-241    H    0.92422994    0.50712011    0.50004016    0.07250000
opls_146-242    H    0.80174004    0.52933006    0.50010996    0.12430000
opls_526-243    H    0.72335005    0.45700017    0.50015968    0.12270000
opls_526-244    H    0.78844012    0.37535007    0.50012047    0.12310000
opls_146-245    H    0.86579013    0.44605013    0.50008032    0.12310000
opls_525-246    H    0.59179990    0.95275004    0.83337987    0.12140000
opls_144-247    H    0.59089004    0.84046015    0.83337987    0.07250000
opls_146-248    H    0.46840015    0.86267010    0.83344966    0.12430000
opls_526-249    H    0.39001015    0.79034022    0.83350034    0.12270000
opls_526-250    H    0.45509992    0.70869011    0.83346018    0.12310000
opls_146-251    H    0.53245023    0.77939017    0.83342002    0.12310000
opls_525-252    H    0.71392020    0.97239016    0.16671001    0.12140000
opls_144-253    H    0.82621004    0.08376988    0.16671001    0.07250000
opls_146-254    H    0.80400024    0.93907021    0.16677981    0.12430000
opls_526-255    H    0.87632998    0.93300998    0.16682953    0.12270000
opls_526-256    H    0.95798007    0.07974997    0.16679033    0.12310000
opls_146-257    H    0.88728011    0.08640008    0.16675017    0.12310000
opls_525-258    H    0.38059000    0.30572014    0.50004016    0.12140000
opls_144-259    H    0.49288001    0.41710020    0.50004016    0.07250000
opls_146-260    H    0.47067003    0.27240019    0.50010996    0.12430000
opls_526-261    H    0.54300008    0.26633996    0.50015968    0.12270000
opls_526-262    H    0.62464986    0.41307995    0.50012047    0.12310000
opls_146-263    H    0.55394990    0.41973006    0.50008032    0.12310000
opls_525-264    H    0.04725010    0.63906018    0.83337987    0.12140000
opls_144-265    H    0.15954011    0.75044025    0.83337987    0.07250000
opls_146-266    H    0.13733014    0.60574023    0.83344966    0.12430000
opls_526-267    H    0.20965988    0.59968000    0.83350034    0.12270000
opls_526-268    H    0.29130997    0.74641999    0.83346018    0.12310000
opls_146-269    H    0.22061001    0.75307010    0.83342002    0.12310000
opls_525-270    H    0.02760997    0.74153017    0.16671001    0.12140000
opls_144-271    H    0.91623012    0.74243999    0.16671001    0.07250000
opls_146-272    H    0.06093000    0.86493006    0.16677981    0.12430000
opls_526-273    H    0.06698995    0.94332017    0.16682953    0.12270000
opls_526-274    H    0.92025009    0.87823028    0.16679033    0.12310000
opls_146-275    H    0.91360004    0.80088011    0.16675017    0.12310000
opls_525-276    H    0.69428007    0.07486015    0.50004016    0.12140000
opls_144-277    H    0.58289992    0.07576997    0.50004016    0.07250000
opls_146-278    H    0.72760009    0.19826004    0.50010996    0.12430000
opls_526-279    H    0.73366005    0.27665015    0.50015968    0.12270000
opls_526-280    H    0.58692001    0.21155992    0.50012047    0.12310000
opls_146-281    H    0.58027014    0.13421009    0.50008032    0.12310000
opls_525-282    H    0.36094018    0.40820020    0.83337987    0.12140000
opls_144-283    H    0.24956002    0.40911001    0.83337987    0.07250000
opls_146-284    H    0.39425990    0.53160008    0.83344966    0.12430000
opls_526-285    H    0.40032015    0.60999019    0.83350034    0.12270000
opls_526-286    H    0.25358011    0.54489996    0.83346018    0.12310000
opls_146-287    H    0.24692994    0.46755013    0.83342002    0.12310000
opls_525-288    H    0.28607997    0.25847017    0.83328999    0.12140000
opls_144-289    H    0.17379013    0.25756001    0.83328999    0.07250000
opls_146-290    H    0.19599993    0.13506994    0.83322019    0.12430000
opls_526-291    H    0.12366995    0.05668018    0.83317047    0.12270000
opls_526-292    H    0.04201998    0.12177006    0.83320967    0.12310000
opls_146-293    H    0.11271993    0.19911989    0.83324983    0.12310000
opls_525-294    H    0.95275007    0.59180015    0.16662013    0.12140000
opls_144-295    H    0.84045993    0.59088999    0.16662013    0.07250000
opls_146-296    H    0.86267003    0.46839992    0.16655034    0.12430000
opls_526-297    H    0.79034005    0.39001016    0.16649966    0.12270000
opls_526-298    H    0.70869007    0.45510004    0.16653982    0.12310000
opls_146-299    H    0.77939020    0.53245021    0.16657998    0.12310000
opls_525-300    H    0.61941017    0.92514019    0.49995984    0.12140000
opls_144-301    H    0.50712003    0.92423003    0.49995984    0.07250000
opls_146-302    H    0.52932984    0.80173996    0.49989004    0.12430000
opls_526-303    H    0.45700015    0.72335020    0.49984032    0.12270000
opls_526-304    H    0.37535018    0.78844008    0.49987953    0.12310000
opls_146-305    H    0.44605000    0.86579026    0.49991968    0.12310000
opls_525-306    H    0.97238998    0.71391998    0.83328999    0.12140000
opls_144-307    H    0.08377018    0.82621021    0.83328999    0.07250000
opls_146-308    H    0.93907004    0.80400027    0.83322019    0.12430000
opls_526-309    H    0.93301023    0.87633015    0.83317047    0.12270000
opls_526-310    H    0.07975010    0.95798025    0.83320967    0.12310000
opls_146-311    H    0.08640005    0.88728019    0.83324983    0.12310000
opls_525-312    H    0.63906008    0.04724996    0.16662013    0.12140000
opls_144-313    H    0.75043998    0.15954019    0.16662013    0.07250000
opls_146-314    H    0.60573996    0.13732990    0.16655034    0.12430000
opls_526-315    H    0.59968002    0.20966013    0.16649966    0.12270000
opls_526-316    H    0.74642003    0.29130989    0.16653982    0.12310000
opls_146-317    H    0.75307015    0.22061017    0.16657998    0.12310000
opls_525-318    H    0.30571989    0.38059001    0.49995984    0.12140000
opls_144-319    H    0.41710009    0.49288024    0.49995984    0.07250000
opls_146-320    H    0.27240007    0.47066994    0.49989004    0.12430000
opls_526-321    H    0.26634013    0.54300017    0.49984032    0.12270000
opls_526-322    H    0.41307983    0.62464993    0.49987953    0.12310000
opls_146-323    H    0.41973025    0.55395021    0.49991968    0.12310000
opls_525-324    H    0.74153022    0.02761019    0.83328999    0.12140000
opls_144-325    H    0.74244016    0.91623012    0.83328999    0.07250000
opls_146-326    H    0.86493020    0.06093014    0.83322019    0.12430000
opls_526-327    H    0.94332000    0.06699002    0.83317047    0.12270000
opls_526-328    H    0.87823009    0.92025003    0.83320967    0.12310000
opls_146-329    H    0.80088020    0.91360027    0.83324983    0.12310000
opls_525-330    H    0.40820002    0.36094017    0.16662013    0.12140000
opls_144-331    H    0.40910996    0.24956010    0.16662013    0.07250000
opls_146-332    H    0.53160000    0.39426012    0.16655034    0.12430000
opls_526-333    H    0.60999009    0.40032000    0.16649966    0.12270000
opls_526-334    H    0.54489989    0.25358001    0.16653982    0.12310000
opls_146-335    H    0.46754982    0.24692990    0.16657998    0.12310000
opls_525-336    H    0.07486012    0.69428021    0.49995984    0.12140000
opls_144-337    H    0.07577006    0.58290014    0.49995984    0.07250000
opls_146-338    H    0.19826010    0.72760016    0.49989004    0.12430000
opls_526-339    H    0.27664990    0.73366004    0.49984032    0.12270000
opls_526-340    H    0.21156000    0.58692005    0.49987953    0.12310000
opls_146-341    H    0.13420993    0.58026994    0.49991968    0.12310000
opls_526-342    H    0.33333002    0.36288992    0.16666985    0.12310000
opls_526-343    H    0.99999999    0.69622025    0.50000000    0.12140000
opls_526-344    H    0.63710990    0.97044006    0.16666985    0.12310000
opls_526-345    H    0.30377992    0.30378010    0.50000000    0.12140000
opls_526-346    H    0.02956008    0.66667002    0.16666985    0.12310000
opls_526-347    H    0.69621996    0.00000000    0.50000000    0.12140000
opls_526-348    H    0.36289006    0.33332998    0.83333015    0.12310000
opls_526-349    H    0.97044010    0.63711008    0.83333015    0.12310000
opls_526-350    H    0.66667002    0.02956029    0.83333015    0.12310000
