#======================================================================
# Crystal Data Generated By AuToFF
#----------------------------------------------------------------------

data_AuToFF_phase_1

_cell_length_a                         21.5042
_cell_length_b                         21.5042
_cell_length_c                         4.1047
_cell_angle_alpha                      90.00
_cell_angle_beta                       90.00
_cell_angle_gamma                      120.00
_symmetry_space_group_name_H-M_alt     'P 1'
_symmetry_space_group_IT_number        1

loop_
_space_group_symop_operation_xyz
   'x, y, z'

loop_
   _atom_site_label
   _atom_site_type_symbol
   _atom_site_fract_x
   _atom_site_fract_y
   _atom_site_fract_z
   _atom_site_charge
opls_700-0    C    0.56837016    0.00065993    0.50000000    -0.05860000
opls_700-1    C    0.99934000    0.56771024    0.50000000    -0.05860000
opls_700-2    C    0.43228984    0.43162983    0.50000000    -0.05860000
opls_700-3    C    0.43162984    0.99934007    0.50000000    -0.05770000
opls_700-4    C    0.00066027    0.43229030    0.50000000    -0.05850000
opls_700-5    C    0.56771016    0.56837017    0.50000000    -0.05860000
opls_166-6    C    0.56422977    0.06420976    0.50000000    0.10410000
opls_166-7    C    0.93580015    0.50001987    0.50000000    0.10410000
opls_166-8    C    0.49998004    0.43576983    0.50000000    0.10410000
opls_166-9    C    0.43577022    0.93580044    0.50000000    0.10410000
opls_166-10    C    0.06421008    0.49998013    0.50000000    0.10410000
opls_166-11    C    0.50003019    0.56423017    0.50000000    0.10410000
opls_166-12    C    0.06399011    0.56529014    0.50000000    0.10420000
opls_166-13    C    0.43471007    0.49870001    0.50000000    0.10420000
opls_166-14    C    0.50130009    0.93601039    0.50000000    0.10420000
opls_166-15    C    0.93600989    0.43470986    0.50000000    0.10410000
opls_166-16    C    0.56528993    0.50129999    0.50000000    0.10450000
opls_166-17    C    0.49870018    0.06399015    0.50000000    0.10420000
opls_145-18    C    0.62859994    0.25711989    0.50000000    -0.26090000
opls_145-19    C    0.74288003    0.37148006    0.50000000    -0.26090000
opls_145-20    C    0.62852003    0.37140005    0.50000000    -0.26090000
opls_145-21    C    0.37140006    0.74288011    0.50000000    -0.26090000
opls_145-22    C    0.25711997    0.62851994    0.50000000    -0.26090000
opls_145-23    C    0.37147997    0.62859995    0.50000000    -0.26090000
opls_145-24    C    0.29563039    0.59120032    0.50000000    -0.05080000
opls_145-25    C    0.40880031    0.70443018    0.50000000    -0.05080000
opls_145-26    C    0.29557003    0.70437004    0.50000000    -0.05080000
opls_145-27    C    0.70436988    0.40880022    0.50000000    -0.05080000
opls_145-28    C    0.59119969    0.29556982    0.50000000    -0.05080000
opls_145-29    C    0.70442997    0.29562996    0.50000000    -0.05080000
opls_149-30    C    0.63389013    0.64085994    0.50000000    -0.12760000
opls_149-31    C    0.35914009    0.99301999    0.50000000    -0.12760000
opls_149-32    C    0.00698003    0.36610987    0.50000000    -0.12760000
opls_149-33    C    0.36612010    0.35914006    0.50000000    -0.12760000
opls_149-34    C    0.64085991    0.00698001    0.50000000    -0.12760000
opls_149-35    C    0.99303020    0.63389013    0.50000000    -0.12760000
opls_135-36    C    0.70738984    0.64368008    0.50000000    -0.39480000
opls_135-37    C    0.35633014    0.06370985    0.50000000    -0.38720000
opls_135-38    C    0.93629025    0.29261007    0.50000000    -0.39480000
opls_135-39    C    0.29261016    0.35631992    0.50000000    -0.38720000
opls_135-40    C    0.64368009    0.93629015    0.50000000    -0.38720000
opls_135-41    C    0.06370975    0.70738993    0.50000000    -0.39480000
opls_167-42    O    0.62044021    0.13204029    0.50000000    -0.35620000
opls_167-43    O    0.86795998    0.48839994    0.50000000    -0.35670000
opls_167-44    O    0.51160008    0.37956031    0.50000000    -0.35630000
opls_167-45    O    0.37956006    0.86796025    0.50000000    -0.35620000
opls_167-46    O    0.13204002    0.51160006    0.50000000    -0.35620000
opls_167-47    O    0.48840019    0.62044023    0.50000000    -0.35620000
opls_167-48    O    0.13231008    0.62066038    0.50000000    -0.35750000
opls_167-49    O    0.37935016    0.51166020    0.50000000    -0.35660000
opls_167-50    O    0.48834001    0.86769016    0.50000000    -0.35660000
opls_167-51    O    0.86768990    0.37934982    0.50000000    -0.35660000
opls_167-52    O    0.62066034    0.48834034    0.50000000    -0.35660000
opls_167-53    O    0.51165999    0.13230984    0.50000000    -0.35650000
MOF2_B_2-54    B    0.58861029    0.17712013    0.50000000    0.55670000
MOF2_B_2-55    B    0.82287973    0.41148987    0.50000000    0.55670000
MOF2_B_2-56    B    0.58850998    0.41139000    0.50000000    0.55670000
MOF2_B_2-57    B    0.41138998    0.82288041    0.50000000    0.55670000
MOF2_B_2-58    B    0.17712027    0.58851013    0.50000000    0.55670000
MOF2_B_2-59    B    0.41149002    0.58861000    0.50000000    0.55680000
opls_146-60    H    0.46396993    0.73201999    0.50000000    0.23770000
opls_146-61    H    0.26798028    0.73195018    0.50000000    0.23770000
opls_146-62    H    0.26805006    0.53603037    0.50000000    0.23770000
opls_146-63    H    0.53603007    0.26798001    0.50000000    0.23770000
opls_146-64    H    0.73201972    0.26804982    0.50000000    0.23770000
opls_146-65    H    0.73195021    0.46397017    0.50000000    0.23770000
opls_702-66    H    0.63142985    0.67012991    0.28729018    0.12320000
opls_702-67    H    0.32987034    0.96130038    0.28729018    0.11850000
opls_702-68    H    0.03871030    0.36857024    0.28729018    0.12320000
opls_702-69    H    0.36857991    0.32987009    0.28729018    0.12320000
opls_702-70    H    0.67013011    0.03870982    0.28729018    0.12320000
opls_702-71    H    0.96130019    0.63143029    0.28729018    0.12320000
opls_702-72    H    0.36857991    0.32987009    0.71270982    0.12320000
opls_702-73    H    0.67013011    0.03870982    0.71270982    0.12320000
opls_702-74    H    0.96130019    0.63143029    0.71270982    0.12320000
opls_702-75    H    0.63142985    0.67012991    0.71270982    0.12320000
opls_702-76    H    0.32987034    0.96130038    0.71270982    0.11850000
opls_702-77    H    0.03871030    0.36857024    0.71270982    0.12320000
opls_140-78    H    0.71258012    0.61649031    0.28615002    0.12370000
opls_140-79    H    0.38350995    0.09608026    0.28615002    0.11590000
opls_140-80    H    0.90391997    0.28742997    0.28615002    0.11590000
opls_140-81    H    0.28742991    0.38351023    0.28615002    0.11590000
opls_140-82    H    0.61649032    0.90392028    0.28615002    0.11590000
opls_140-83    H    0.09608003    0.71257003    0.28615002    0.11590000
opls_140-84    H    0.28742991    0.38351023    0.71384998    0.11590000
opls_140-85    H    0.61649032    0.90392028    0.71384998    0.11590000
opls_140-86    H    0.09608003    0.71257003    0.71384998    0.11590000
opls_140-87    H    0.71258012    0.61649031    0.71384998    0.12370000
opls_140-88    H    0.38350995    0.09608026    0.71384998    0.11590000
opls_140-89    H    0.90391997    0.28742997    0.71384998    0.11590000
opls_140-90    H    0.75137011    0.69923021    0.50000000    0.11930000
opls_140-91    H    0.30076976    0.05213986    0.50000000    0.12220000
opls_140-92    H    0.94786013    0.24862993    0.50000000    0.11930000
opls_140-93    H    0.24862989    0.30076979    0.50000000    0.11930000
opls_140-94    H    0.69923024    0.94786014    0.50000000    0.11930000
opls_140-95    H    0.05213987    0.75137007    0.50000000    0.11930000
