#======================================================================
# Crystal Data Generated By AuToFF
#----------------------------------------------------------------------

data_AuToFF_phase_1

_cell_length_a                         99.6577
_cell_length_b                         99.6577
_cell_length_c                         3.5529
_cell_angle_alpha                      90.00
_cell_angle_beta                       90.00
_cell_angle_gamma                      120.00
_symmetry_space_group_name_H-M_alt     'P 1'
_symmetry_space_group_IT_number        1

loop_
_space_group_symop_operation_xyz
   'x, y, z'

loop_
   _atom_site_label
   _atom_site_type_symbol
   _atom_site_fract_x
   _atom_site_fract_y
   _atom_site_fract_z
   _atom_site_charge
opls_520-0    N    0.34900001    0.67501996    0.41280081    -0.43880000
opls_750-1    N    0.20110004    0.59679999    0.45769934    -0.34040000
opls_520-2    N    0.32498002    0.67398005    0.41280081    -0.43870000
opls_750-3    N    0.40320002    0.60430004    0.45769934    -0.34040000
opls_520-4    N    0.32601997    0.65099999    0.41280081    -0.43880000
opls_750-5    N    0.39569994    0.79889996    0.45769934    -0.34040000
opls_520-6    N    0.65099999    0.32498004    0.41280081    -0.43880000
opls_750-7    N    0.79889996    0.40320001    0.45769934    -0.34040000
opls_520-8    N    0.67501998    0.32601995    0.41280081    -0.43870000
opls_750-9    N    0.59679998    0.39569996    0.45769934    -0.34040000
opls_520-10    N    0.67398003    0.34900001    0.41280081    -0.43870000
opls_750-11    N    0.60430006    0.20110004    0.45769934    -0.34040000
opls_531-12    C    0.31756001    0.65825000    0.41273889    0.36050000
opls_700-13    C    0.35088007    0.65131005    0.41441076    0.00070000
opls_523-14    C    0.34385997    0.63548996    0.32517099    -0.12020000
opls_145-15    C    0.35249006    0.62795005    0.32617017    -0.12420000
opls_700-16    C    0.36831001    0.63600000    0.42121084    0.07030000
opls_145-17    C    0.37529002    0.65181998    0.51208027    -0.12320000
opls_523-18    C    0.36670999    0.65941005    0.50634974    -0.12210000
opls_700-19    C    0.37746998    0.62793001    0.42687101    0.07000000
opls_145-20    C    0.37065005    0.61238001    0.54237102    -0.12420000
opls_145-21    C    0.37927998    0.60483998    0.54814096    -0.16580000
opls_145-22    C    0.39491001    0.61264997    0.44442005    0.19490000
opls_145-23    C    0.40177003    0.62816997    0.32468125    -0.16470000
opls_145-24    C    0.39311994    0.63568995    0.31618959    -0.12710000
opls_145-25    C    0.00931000    0.51611995    0.58301106    -0.24620000
opls_166-26    C    0.00692001    0.49059997    0.59549945    0.21720000
opls_700-27    C    0.01614995    0.50680995    0.58419882    0.04150000
opls_145-28    C    0.16809997    0.58408004    0.48529089    -0.12840000
opls_145-29    C    0.15197002    0.57717994    0.49920065    -0.11570000
opls_700-30    C    0.14267995    0.56103995    0.48533029    0.14740000
opls_145-31    C    0.14956003    0.55181001    0.45733063    -0.11500000
opls_145-32    C    0.16568993    0.55868994    0.44351093    -0.12320000
opls_700-33    C    0.17511002    0.57487003    0.45742914    0.06980000
opls_142-34    C    0.19210002    0.58186003    0.44295083    0.07130000
opls_261-35    C    0.12609000    0.55394995    0.49985927    -0.11370000
opls_261-36    C    0.11219000    0.54802001    0.51193954    -0.11370000
opls_700-37    C    0.09560004    0.54093002    0.52611951    0.12860000
opls_145-38    C    0.08857994    0.54995997    0.47529061    -0.11590000
opls_145-39    C    0.07245001    0.54306996    0.48818993    -0.11590000
opls_700-40    C    0.06327997    0.52711002    0.55196037    0.12860000
opls_145-41    C    0.07028998    0.51807995    0.60302007    -0.11590000
opls_145-42    C    0.08643007    0.52498004    0.59012919    -0.11610000
opls_261-43    C    0.04668999    0.52000994    0.56406879    -0.11200000
opls_261-44    C    0.03277995    0.51401998    0.57362999    -0.11340000
opls_181-45    C    0.53307994    0.53973995    0.77632075    -0.19490000
opls_531-46    C    0.34174997    0.65930994    0.41273889    0.36050000
opls_700-47    C    0.34868996    0.69957002    0.41441076    0.00070000
opls_523-48    C    0.36451003    0.70836998    0.32517099    -0.12020000
opls_145-49    C    0.37204997    0.72453998    0.32617017    -0.12420000
opls_700-50    C    0.36400002    0.73231000    0.42121084    0.07030000
opls_145-51    C    0.34817998    0.72346995    0.51208027    -0.12320000
opls_523-52    C    0.34058997    0.70729995    0.50634974    -0.12210000
opls_700-53    C    0.37206993    0.74953995    0.42687101    0.07000000
opls_145-54    C    0.38762006    0.75827004    0.54237102    -0.12420000
opls_145-55    C    0.39516000    0.77444005    0.54814096    -0.16580000
opls_145-56    C    0.38734996    0.78226000    0.44442005    0.19490000
opls_145-57    C    0.37182996    0.77360001    0.32468125    -0.16470000
opls_145-58    C    0.36431000    0.75743001    0.31618959    -0.12710000
opls_145-59    C    0.48388005    0.49319005    0.58301106    -0.24620000
opls_166-60    C    0.50940002    0.51632005    0.59549945    0.21720000
opls_700-61    C    0.49318996    0.50934001    0.58419882    0.04150000
opls_145-62    C    0.41592005    0.58402002    0.48529089    -0.12840000
opls_145-63    C    0.42281994    0.57478996    0.49920065    -0.11570000
opls_700-64    C    0.43895998    0.58164000    0.48533029    0.14740000
opls_145-65    C    0.44819000    0.59774999    0.45733063    -0.11500000
opls_145-66    C    0.44131001    0.60699997    0.44351093    -0.12320000
opls_700-67    C    0.42512999    0.60023996    0.45742914    0.06980000
opls_142-68    C    0.41813994    0.61023995    0.44295083    0.07130000
opls_261-69    C    0.44605000    0.57213998    0.49985927    -0.11370000
opls_261-70    C    0.45197994    0.56416997    0.51193954    -0.11370000
opls_700-71    C    0.45906995    0.55466995    0.52611951    0.12860000
opls_145-72    C    0.45004003    0.53861998    0.47529061    -0.11590000
opls_145-73    C    0.45693002    0.52937996    0.48818993    -0.11610000
opls_700-74    C    0.47289004    0.53616998    0.55196037    0.12860000
opls_145-75    C    0.48192000    0.55220998    0.60302007    -0.11590000
opls_145-76    C    0.47501997    0.56145000    0.59012919    -0.11610000
opls_261-77    C    0.47999001    0.52668004    0.56406879    -0.11200000
opls_261-78    C    0.48597994    0.51875997    0.57362999    -0.11340000
opls_181-79    C    0.46025996    0.99333998    0.77632075    -0.19490000
opls_531-80    C    0.34068996    0.68243994    0.41273889    0.36050000
opls_700-81    C    0.30043003    0.64912005    0.41441076    0.00070000
opls_523-82    C    0.29162994    0.65613995    0.32517099    -0.12020000
opls_145-83    C    0.27545997    0.64750997    0.32617017    -0.12420000
opls_700-84    C    0.26768996    0.63169000    0.42121084    0.07030000
opls_145-85    C    0.27652995    0.62470996    0.51208027    -0.12320000
opls_523-86    C    0.29270004    0.63329000    0.50634974    -0.12210000
opls_700-87    C    0.25045999    0.62253004    0.42687101    0.07000000
opls_145-88    C    0.24172999    0.62934995    0.54237102    -0.12420000
opls_145-89    C    0.22556002    0.62071997    0.54814096    -0.16580000
opls_145-90    C    0.21774002    0.60509002    0.44442005    0.19490000
opls_145-91    C    0.22640001    0.59823002    0.32468125    -0.16470000
opls_145-92    C    0.24257007    0.60688005    0.31618959    -0.12710000
opls_145-93    C    0.50681004    0.99069000    0.58301106    -0.24620000
opls_166-94    C    0.48367997    0.99307998    0.59549945    0.21720000
opls_700-95    C    0.49065999    0.98385004    0.58419882    0.04150000
opls_145-96    C    0.41597998    0.83189995    0.48529089    -0.12840000
opls_145-97    C    0.42520998    0.84802998    0.49920065    -0.11570000
opls_700-98    C    0.41836007    0.85732005    0.48533029    0.14740000
opls_145-99    C    0.40224998    0.85044000    0.45733063    -0.11500000
opls_145-100    C    0.39300000    0.83430997    0.44351093    -0.12320000
opls_700-101    C    0.39975999    0.82489001    0.45742914    0.06980000
opls_142-102    C    0.38976004    0.80790002    0.44295083    0.07130000
opls_261-103    C    0.42785995    0.87390996    0.49985927    -0.11370000
opls_261-104    C    0.43582997    0.88781002    0.51193954    -0.11370000
opls_700-105    C    0.44533000    0.90440004    0.52611951    0.12860000
opls_145-106    C    0.46138003    0.91142005    0.47529061    -0.11590000
opls_145-107    C    0.47062001    0.92754996    0.48818993    -0.11590000
opls_700-108    C    0.46382999    0.93672000    0.55196037    0.12860000
opls_145-109    C    0.44778996    0.92970995    0.60302007    -0.11590000
opls_145-110    C    0.43854996    0.91356996    0.59012919    -0.11610000
opls_261-111    C    0.47331999    0.95331002    0.56406879    -0.11200000
opls_261-112    C    0.48124001    0.96722005    0.57362999    -0.11340000
opls_181-113    C    0.00665994    0.46691995    0.77632075    -0.19480000
opls_531-114    C    0.68243999    0.34175000    0.41273889    0.36050000
opls_700-115    C    0.64911993    0.34868995    0.41441076    0.00070000
opls_523-116    C    0.65614003    0.36451004    0.32517099    -0.12020000
opls_145-117    C    0.64750994    0.37204995    0.32617017    -0.12420000
opls_700-118    C    0.63168999    0.36400000    0.42121084    0.07030000
opls_145-119    C    0.62470998    0.34818002    0.51208027    -0.12320000
opls_523-120    C    0.63329001    0.34058995    0.50634974    -0.12210000
opls_700-121    C    0.62253002    0.37206999    0.42687101    0.07000000
opls_145-122    C    0.62934995    0.38761999    0.54237102    -0.12420000
opls_145-123    C    0.62072002    0.39516002    0.54814096    -0.16580000
opls_145-124    C    0.60508999    0.38735003    0.44442005    0.19490000
opls_145-125    C    0.59822997    0.37183003    0.32468125    -0.16470000
opls_145-126    C    0.60688006    0.36431005    0.31618959    -0.12710000
opls_145-127    C    0.99069000    0.48388005    0.58301106    -0.24610000
opls_166-128    C    0.99307999    0.50940003    0.59549945    0.21720000
opls_700-129    C    0.98385005    0.49319005    0.58419882    0.04150000
opls_145-130    C    0.83190003    0.41591996    0.48529089    -0.12840000
opls_145-131    C    0.84802998    0.42282006    0.49920065    -0.11560000
opls_700-132    C    0.85732005    0.43896005    0.48533029    0.14740000
opls_145-133    C    0.85043997    0.44818999    0.45733063    -0.11500000
opls_145-134    C    0.83431001    0.44130994    0.44351093    -0.12320000
opls_700-135    C    0.82488998    0.42512997    0.45742914    0.06980000
opls_142-136    C    0.80789998    0.41813997    0.44295083    0.07130000
opls_261-137    C    0.87391000    0.44605005    0.49985927    -0.11370000
opls_261-138    C    0.88781000    0.45197999    0.51193954    -0.11370000
opls_700-139    C    0.90439996    0.45906998    0.52611951    0.12860000
opls_145-140    C    0.91142006    0.45004003    0.47529061    -0.11590000
opls_145-141    C    0.92754999    0.45693004    0.48818993    -0.11590000
opls_700-142    C    0.93672003    0.47288998    0.55196037    0.12860000
opls_145-143    C    0.92971002    0.48192005    0.60302007    -0.11590000
opls_145-144    C    0.91356993    0.47501996    0.59012919    -0.11610000
opls_261-145    C    0.95330995    0.47998994    0.56406879    -0.11200000
opls_261-146    C    0.96722005    0.48598002    0.57362999    -0.11340000
opls_181-147    C    0.46692006    0.46026005    0.77632075    -0.19490000
opls_531-148    C    0.65825003    0.34069006    0.41273889    0.36050000
opls_700-149    C    0.65131004    0.30042998    0.41441076    0.00070000
opls_523-150    C    0.63548997    0.29163002    0.32517099    -0.12020000
opls_145-151    C    0.62795003    0.27546002    0.32617017    -0.12420000
opls_700-152    C    0.63599998    0.26769000    0.42121084    0.07030000
opls_145-153    C    0.65182002    0.27653005    0.51208027    -0.12320000
opls_523-154    C    0.65941003    0.29270005    0.50634974    -0.12210000
opls_700-155    C    0.62793007    0.25046005    0.42687101    0.07000000
opls_145-156    C    0.61237994    0.24172996    0.54237102    -0.12420000
opls_145-157    C    0.60484000    0.22555995    0.54814096    -0.16580000
opls_145-158    C    0.61265004    0.21774000    0.44442005    0.19490000
opls_145-159    C    0.62817004    0.22639999    0.32468125    -0.16470000
opls_145-160    C    0.63569000    0.24256999    0.31618959    -0.12710000
opls_145-161    C    0.51611995    0.50680995    0.58301106    -0.24620000
opls_166-162    C    0.49059998    0.48367995    0.59549945    0.21720000
opls_700-163    C    0.50681004    0.49065999    0.58419882    0.04150000
opls_145-164    C    0.58407995    0.41597998    0.48529089    -0.12830000
opls_145-165    C    0.57718006    0.42521004    0.49920065    -0.11570000
opls_700-166    C    0.56104002    0.41836000    0.48533029    0.14740000
opls_145-167    C    0.55181000    0.40225001    0.45733063    -0.11500000
opls_145-168    C    0.55868999    0.39300003    0.44351093    -0.12320000
opls_700-169    C    0.57487001    0.39976004    0.45742914    0.06980000
opls_142-170    C    0.58186006    0.38976005    0.44295083    0.07130000
opls_261-171    C    0.55395000    0.42786002    0.49985927    -0.11360000
opls_261-172    C    0.54802006    0.43583003    0.51193954    -0.11370000
opls_700-173    C    0.54093005    0.44533005    0.52611951    0.12870000
opls_145-174    C    0.54995997    0.46138002    0.47529061    -0.11590000
opls_145-175    C    0.54306998    0.47062004    0.48818993    -0.11610000
opls_700-176    C    0.52710996    0.46383002    0.55196037    0.12860000
opls_145-177    C    0.51808000    0.44779002    0.60302007    -0.11590000
opls_145-178    C    0.52498003    0.43855000    0.59012919    -0.11610000
opls_261-179    C    0.52000999    0.47331996    0.56406879    -0.11200000
opls_261-180    C    0.51402006    0.48124003    0.57362999    -0.11330000
opls_181-181    C    0.53974004    0.00666002    0.77632075    -0.19490000
opls_531-182    C    0.65931004    0.31756006    0.41273889    0.36050000
opls_700-183    C    0.69956997    0.35087995    0.41441076    0.00070000
opls_523-184    C    0.70837006    0.34386005    0.32517099    -0.12020000
opls_145-185    C    0.72454003    0.35249003    0.32617017    -0.12420000
opls_700-186    C    0.73231004    0.36831000    0.42121084    0.07030000
opls_145-187    C    0.72347005    0.37529004    0.51208027    -0.12320000
opls_523-188    C    0.70729996    0.36671000    0.50634974    -0.12210000
opls_700-189    C    0.74954001    0.37746996    0.42687101    0.07000000
opls_145-190    C    0.75827001    0.37065005    0.54237102    -0.12420000
opls_145-191    C    0.77443998    0.37928003    0.54814096    -0.16580000
opls_145-192    C    0.78225998    0.39490998    0.44442005    0.19500000
opls_145-193    C    0.77359999    0.40176998    0.32468125    -0.16470000
opls_145-194    C    0.75742993    0.39311995    0.31618959    -0.12710000
opls_145-195    C    0.49318996    0.00931000    0.58301106    -0.24620000
opls_166-196    C    0.51632003    0.00692002    0.59549945    0.21720000
opls_700-197    C    0.50934001    0.01614996    0.58419882    0.04150000
opls_145-198    C    0.58402002    0.16810005    0.48529089    -0.12840000
opls_145-199    C    0.57479002    0.15197002    0.49920065    -0.11570000
opls_700-200    C    0.58163993    0.14267995    0.48533029    0.14740000
opls_145-201    C    0.59775002    0.14956000    0.45733063    -0.11500000
opls_145-202    C    0.60700000    0.16569003    0.44351093    -0.12320000
opls_700-203    C    0.60024001    0.17510999    0.45742914    0.06980000
opls_142-204    C    0.61023996    0.19209998    0.44295083    0.07130000
opls_261-205    C    0.57214005    0.12609004    0.49985927    -0.11370000
opls_261-206    C    0.56417003    0.11218998    0.51193954    -0.11370000
opls_700-207    C    0.55467000    0.09559996    0.52611951    0.12860000
opls_145-208    C    0.53861997    0.08857995    0.47529061    -0.11580000
opls_145-209    C    0.52937999    0.07245004    0.48818993    -0.11590000
opls_700-210    C    0.53617001    0.06328000    0.55196037    0.12860000
opls_145-211    C    0.55221004    0.07029005    0.60302007    -0.11590000
opls_145-212    C    0.56145004    0.08643004    0.59012919    -0.11610000
opls_261-213    C    0.52668001    0.04668998    0.56406879    -0.11200000
opls_261-214    C    0.51875999    0.03277995    0.57362999    -0.11340000
opls_181-215    C    0.99334006    0.53308005    0.77632075    -0.19490000
opls_526-216    H    0.33173002    0.62895995    0.24885024    0.11990000
opls_146-217    H    0.34679992    0.61585995    0.24630865    0.12220000
opls_146-218    H    0.38734997    0.65831998    0.59479017    0.12000000
opls_526-219    H    0.37242002    0.67157003    0.58055954    0.11810000
opls_146-220    H    0.35873001    0.60610003    0.63588899    0.12470000
opls_146-221    H    0.37381993    0.59288996    0.64002083    0.11970000
opls_146-222    H    0.41362995    0.63446999    0.22859073    0.12410000
opls_146-223    H    0.39861995    0.64750997    0.21459934    0.11850000
opls_146-224    H    0.01668004    0.52858002    0.56610093    0.11970000
opls_146-225    H    0.17505999    0.59659004    0.49674069    0.11810000
opls_146-226    H    0.14674998    0.58441999    0.52105041    0.11850000
opls_146-227    H    0.14246996    0.53930000    0.44613977    0.12100000
opls_146-228    H    0.17081996    0.55135998    0.42175125    0.11660000
opls_144-229    H    0.19687002    0.57422001    0.42808129    0.11350000
opls_146-230    H    0.09557002    0.56230996    0.42494019    0.12120000
opls_146-231    H    0.06713000    0.55014999    0.44767936    0.11640000
opls_146-232    H    0.06330000    0.50572995    0.65299051    0.12100000
opls_146-233    H    0.09173998    0.51789004    0.63027949    0.11500000
opls_185-234    H    0.53439998    0.54978999    0.94038954    0.07500000
opls_185-235    H    0.54251994    0.54407997    0.56547046    0.07760000
opls_185-236    H    0.53434004    0.53182000    0.97388894    0.09020000
opls_526-237    H    0.37103999    0.70277002    0.24885024    0.11990000
opls_146-238    H    0.38414000    0.73093999    0.24630865    0.12220000
opls_146-239    H    0.34168006    0.72903005    0.59479017    0.12030000
opls_526-240    H    0.32843001    0.70085000    0.58055954    0.11810000
opls_146-241    H    0.39389999    0.75263000    0.63588899    0.12470000
opls_146-242    H    0.40710996    0.78092997    0.64002083    0.11970000
opls_146-243    H    0.36552997    0.77915999    0.22859073    0.12060000
opls_146-244    H    0.35249002    0.75110994    0.21459934    0.11850000
opls_146-245    H    0.47142000    0.48810003    0.56610093    0.11970000
opls_146-246    H    0.40341002    0.57847000    0.49674069    0.11810000
opls_146-247    H    0.41558001    0.56233001    0.52105041    0.11850000
opls_146-248    H    0.46069995    0.60317000    0.44613977    0.12100000
opls_146-249    H    0.44864001    0.61946004    0.42175125    0.11660000
opls_144-250    H    0.42577996    0.62264996    0.42808129    0.11350000
opls_146-251    H    0.43769003    0.53325999    0.42494019    0.12120000
opls_146-252    H    0.44985004    0.51698003    0.44767936    0.11640000
opls_146-253    H    0.49426999    0.55756997    0.65299051    0.12100000
opls_146-254    H    0.48211004    0.57385005    0.63027949    0.11500000
opls_185-255    H    0.45021001    0.98461001    0.94038954    0.07500000
opls_185-256    H    0.45591997    0.99843997    0.56547046    0.07750000
opls_185-257    H    0.46817996    0.00251998    0.97388894    0.09020000
opls_526-258    H    0.29722999    0.66827003    0.24885024    0.11990000
opls_146-259    H    0.26906001    0.65319995    0.24630865    0.12220000
opls_146-260    H    0.27096997    0.61264997    0.59479017    0.12030000
opls_526-261    H    0.29914997    0.62757997    0.58055954    0.11810000
opls_146-262    H    0.24737000    0.64126997    0.63588899    0.12470000
opls_146-263    H    0.21906995    0.62617996    0.64002083    0.11970000
opls_146-264    H    0.22083998    0.58637002    0.22859073    0.12060000
opls_146-265    H    0.24888997    0.60137997    0.21459934    0.11850000
opls_146-266    H    0.51189996    0.98331995    0.56610093    0.11980000
opls_146-267    H    0.42152999    0.82493995    0.49674069    0.11810000
opls_146-268    H    0.43767001    0.85325000    0.52105041    0.11850000
opls_146-269    H    0.39682999    0.85753000    0.44613977    0.12100000
opls_146-270    H    0.38054004    0.82917998    0.42175125    0.11660000
opls_144-271    H    0.37735002    0.80313002    0.42808129    0.11350000
opls_146-272    H    0.46674004    0.90443005    0.42494019    0.12120000
opls_146-273    H    0.48301996    0.93286998    0.44767936    0.11640000
opls_146-274    H    0.44242995    0.93669996    0.65299051    0.12100000
opls_146-275    H    0.42615003    0.90826002    0.63027949    0.11500000
opls_185-276    H    0.01539000    0.46560000    0.94038954    0.07500000
opls_185-277    H    0.00155994    0.45747995    0.56547046    0.07750000
opls_185-278    H    0.99748001    0.46566002    0.97388894    0.09020000
opls_526-279    H    0.66826998    0.37104005    0.24885024    0.11990000
opls_146-280    H    0.65320008    0.38414005    0.24630865    0.12220000
opls_146-281    H    0.61265003    0.34168002    0.59479017    0.12000000
opls_526-282    H    0.62757998    0.32842997    0.58055954    0.11810000
opls_146-283    H    0.64126999    0.39389997    0.63588899    0.12480000
opls_146-284    H    0.62618007    0.40711004    0.64002083    0.11970000
opls_146-285    H    0.58637005    0.36553001    0.22859073    0.12410000
opls_146-286    H    0.60138005    0.35249003    0.21459934    0.11850000
opls_146-287    H    0.98331996    0.47141998    0.56610093    0.11970000
opls_146-288    H    0.82494001    0.40340996    0.49674069    0.11810000
opls_146-289    H    0.85325002    0.41558001    0.52105041    0.11850000
opls_146-290    H    0.85753004    0.46070000    0.44613977    0.12100000
opls_146-291    H    0.82918004    0.44864002    0.42175125    0.11660000
opls_144-292    H    0.80312998    0.42577999    0.42808129    0.11350000
opls_146-293    H    0.90442998    0.43769004    0.42494019    0.12120000
opls_146-294    H    0.93287000    0.44985001    0.44767936    0.11640000
opls_146-295    H    0.93670000    0.49427005    0.65299051    0.12100000
opls_146-296    H    0.90826002    0.48210996    0.63027949    0.11500000
opls_185-297    H    0.46560002    0.45021001    0.94038954    0.07500000
opls_185-298    H    0.45748006    0.45592003    0.56547046    0.07750000
opls_185-299    H    0.46565996    0.46818000    0.97388894    0.09020000
opls_526-300    H    0.62896001    0.29722998    0.24885024    0.11990000
opls_146-301    H    0.61586000    0.26906001    0.24630865    0.12220000
opls_146-302    H    0.65831994    0.27096995    0.59479017    0.12030000
opls_526-303    H    0.67156999    0.29915000    0.58055954    0.11810000
opls_146-304    H    0.60610001    0.24737000    0.63588899    0.12470000
opls_146-305    H    0.59289004    0.21907003    0.64002083    0.11970000
opls_146-306    H    0.63447003    0.22084001    0.22859073    0.12060000
opls_146-307    H    0.64750998    0.24889006    0.21459934    0.11860000
opls_146-308    H    0.52858000    0.51189997    0.56610093    0.11970000
opls_146-309    H    0.59658998    0.42153000    0.49674069    0.11810000
opls_146-310    H    0.58441999    0.43766999    0.52105041    0.11850000
opls_146-311    H    0.53930005    0.39683000    0.44613977    0.12100000
opls_146-312    H    0.55135999    0.38053996    0.42175125    0.11660000
opls_144-313    H    0.57422004    0.37735004    0.42808129    0.11350000
opls_146-314    H    0.56230997    0.46674001    0.42494019    0.12120000
opls_146-315    H    0.55014996    0.48301997    0.44767936    0.11640000
opls_146-316    H    0.50573001    0.44243003    0.65299051    0.12100000
opls_146-317    H    0.51788996    0.42614995    0.63027949    0.11500000
opls_185-318    H    0.54978999    0.01538999    0.94038954    0.07500000
opls_185-319    H    0.54408003    0.00156003    0.56547046    0.07750000
opls_185-320    H    0.53182004    0.99748002    0.97388894    0.09020000
opls_526-321    H    0.70277001    0.33172997    0.24885024    0.12000000
opls_146-322    H    0.73093999    0.34680005    0.24630865    0.12220000
opls_146-323    H    0.72903003    0.38735003    0.59479017    0.12030000
opls_526-324    H    0.70085003    0.37242003    0.58055954    0.11810000
opls_146-325    H    0.75263000    0.35873003    0.63588899    0.12470000
opls_146-326    H    0.78093005    0.37382004    0.64002083    0.11970000
opls_146-327    H    0.77916002    0.41362998    0.22859073    0.12060000
opls_146-328    H    0.75111003    0.39862003    0.21459934    0.11850000
opls_146-329    H    0.48810004    0.01668005    0.56610093    0.11970000
opls_146-330    H    0.57847001    0.17506005    0.49674069    0.11810000
opls_146-331    H    0.56232999    0.14675000    0.52105041    0.11850000
opls_146-332    H    0.60317001    0.14247000    0.44613977    0.12100000
opls_146-333    H    0.61945996    0.17082002    0.42175125    0.11660000
opls_144-334    H    0.62264998    0.19686998    0.42808129    0.11350000
opls_146-335    H    0.53325996    0.09556995    0.42494019    0.12120000
opls_146-336    H    0.51698004    0.06713002    0.44767936    0.11650000
opls_146-337    H    0.55757005    0.06330004    0.65299051    0.12100000
opls_146-338    H    0.57384997    0.09173998    0.63027949    0.11500000
opls_185-339    H    0.98461000    0.53440000    0.94038954    0.07500000
opls_185-340    H    0.99844006    0.54252005    0.56547046    0.07750000
opls_185-341    H    0.00251999    0.53433998    0.97388894    0.09020000
opls_179-342    O    0.01428002    0.48164996    0.59171100    -0.19910000
opls_179-343    O    0.51835003    0.53263002    0.59171100    -0.19910000
opls_179-344    O    0.46737005    0.98572001    0.59171100    -0.19910000
opls_179-345    O    0.98571998    0.51835004    0.59171100    -0.19910000
opls_179-346    O    0.48164997    0.46736998    0.59171100    -0.19910000
opls_179-347    O    0.53262995    0.01427999    0.59171100    -0.19910000
