#======================================================================
# Crystal Data Generated By AuToFF
#----------------------------------------------------------------------

data_AuToFF_phase_1

_cell_length_a                         14.3500
_cell_length_b                         14.3500
_cell_length_c                         3.5200
_cell_angle_alpha                      90.00
_cell_angle_beta                       90.00
_cell_angle_gamma                      120.00
_symmetry_space_group_name_H-M_alt     'P 1'
_symmetry_space_group_IT_number        1

loop_
_space_group_symop_operation_xyz
   'x, y, z'

loop_
   _atom_site_label
   _atom_site_type_symbol
   _atom_site_fract_x
   _atom_site_fract_y
   _atom_site_fract_z
   _atom_site_charge
opls_281-0    O    0.21337013    0.09795002    0.42867898    -0.40010000
opls_281-1    O    0.12126044    0.55779057    0.29321875    -0.41380000
opls_281-2    O    0.90205017    0.11542021    0.42867898    -0.40010000
opls_281-3    O    0.44221023    0.56346993    0.29321875    -0.41380000
opls_281-4    O    0.88458010    0.78663057    0.42867898    -0.40010000
opls_281-5    O    0.43653043    0.87874031    0.29321875    -0.41380000
opls_280-6    C    0.21505019    0.60599028    0.18676989    0.30450000
opls_145-7    C    0.27660978    0.54994987    0.13969034    -0.19110000
opls_142-8    C    0.11562961    0.21997979    0.22501136    0.09020000
opls_280-9    C    0.11728960    0.05380987    0.35515909    0.28980000
opls_145-10    C    0.06297956    0.11690965    0.31453977    -0.13350000
opls_142-11    C    0.22090013    0.44546995    0.07573011    0.08500000
opls_280-12    C    0.39401019    0.60906010    0.18676989    0.30450000
opls_145-13    C    0.45004994    0.72666015    0.13969034    -0.19110000
opls_142-14    C    0.78002034    0.89565044    0.22501136    0.09020000
opls_280-15    C    0.94619037    0.06348039    0.35515909    0.28980000
opls_145-16    C    0.88309017    0.94607023    0.31453977    -0.13350000
opls_142-17    C    0.55453052    0.77543038    0.07573011    0.08500000
opls_280-18    C    0.39094002    0.78495042    0.18676989    0.30460000
opls_145-19    C    0.27334028    0.72338998    0.13969034    -0.19110000
opls_142-20    C    0.10435045    0.88437058    0.22501136    0.09030000
opls_280-21    C    0.93652043    0.88271055    0.35515909    0.28980000
opls_145-22    C    0.05393027    0.93702012    0.31453977    -0.13350000
opls_142-23    C    0.22457045    0.77910048    0.07573011    0.08500000
opls_144-24    H    0.07138004    0.26184997    0.25021023    0.09870000
opls_144-25    H    0.59077012    0.72616045    0.04636932    0.09810000
opls_910-26    H    0.25611988    0.22965996    0.95538068    0.24690000
opls_910-27    H    0.34335028    0.41592007    0.85925000    0.21920000
opls_144-28    H    0.73815000    0.80953067    0.25021023    0.09870000
opls_144-29    H    0.27384034    0.86461031    0.04636932    0.09810000
opls_910-30    H    0.77034048    0.02646076    0.95538068    0.24680000
opls_910-31    H    0.58408019    0.92743006    0.85925000    0.21920000
opls_144-32    H    0.19047036    0.92862017    0.25021023    0.09870000
opls_144-33    H    0.13538993    0.40923004    0.04636932    0.09810000
opls_910-34    H    0.97354004    0.74388008    0.95538068    0.24680000
opls_910-35    H    0.07257023    0.65664987    0.85925000    0.21920000
opls_238-36    N    0.72823053    0.94700043    0.05576136    -0.14950000
opls_238-37    N    0.61633997    0.88850014    0.00638920    -0.14440000
opls_238-38    N    0.05299989    0.78123044    0.05576136    -0.14950000
opls_238-39    N    0.11150009    0.72784060    0.00638920    -0.14440000
opls_238-40    N    0.21876999    0.27176994    0.05576136    -0.14950000
opls_238-41    N    0.27216034    0.38366006    0.00638920    -0.14440000
