#======================================================================
# Crystal Data Generated By AuToFF
#----------------------------------------------------------------------

data_AuToFF_phase_1

_cell_length_a                         29.4360
_cell_length_b                         29.4360
_cell_length_c                         4.9513
_cell_angle_alpha                      90.00
_cell_angle_beta                       90.00
_cell_angle_gamma                      90.00
_symmetry_space_group_name_H-M_alt     'P 1'
_symmetry_space_group_IT_number        1

loop_
_space_group_symop_operation_xyz
   'x, y, z'

loop_
   _atom_site_label
   _atom_site_type_symbol
   _atom_site_fract_x
   _atom_site_fract_y
   _atom_site_fract_z
   _atom_site_charge
opls_700-0    C    0.49210015    0.66727001    0.61981096    0.07270000
opls_145-1    C    0.46632015    0.69226016    0.43189061    -0.07930000
opls_145-2    C    0.46167006    0.73926009    0.45710016    -0.11790000
opls_145-3    C    0.51378007    0.73873013    0.83450003    -0.14260000
opls_145-4    C    0.51589992    0.69112006    0.82152970    -0.08570000
opls_145-5    C    0.48568997    0.76286996    0.65598934    0.22570000
opls_145-6    C    0.50830004    0.24114010    0.59731990    0.25180000
opls_145-7    C    0.48172000    0.26582994    0.78210975    -0.14260000
opls_145-8    C    0.48155999    0.31343015    0.77646073    -0.08400000
opls_145-9    C    0.53094986    0.31213004    0.38696908    -0.08140000
opls_145-10    C    0.53362991    0.26484984    0.40442914    -0.11800000
opls_700-11    C    0.50593015    0.33765016    0.57715953    0.08040000
opls_700-12    C    0.49405999    0.61612991    0.60173086    -0.06790000
opls_543-13    C    0.45406985    0.59133000    0.59660089    0.23400000
opls_543-14    C    0.53546983    0.59465009    0.56133945    0.23660000
opls_716-15    C    0.57531016    0.61912998    0.54078929    -0.14770000
opls_716-16    C    0.60848009    0.58892988    0.49837013    -0.15880000
opls_543-17    C    0.58805986    0.54660993    0.48160079    0.23310000
opls_716-18    C    0.41199993    0.61187016    0.61042958    -0.14330000
opls_716-19    C    0.38133986    0.57967998    0.55182073    -0.16800000
opls_543-20    C    0.40467998    0.53889013    0.53510997    0.23500000
opls_700-21    C    0.50382015    0.38644007    0.56130915    -0.05450000
opls_543-22    C    0.46218984    0.40818012    0.55040090    0.23310000
opls_543-23    C    0.54293994    0.41250000    0.53211076    0.23610000
opls_716-24    C    0.58550992    0.39266986    0.52319997    -0.13900000
opls_716-25    C    0.61483999    0.42534006    0.45986913    -0.14490000
opls_543-26    C    0.59094001    0.46571987    0.46734999    0.23600000
opls_716-27    C    0.42172985    0.38428999    0.53794963    -0.14410000
opls_716-28    C    0.38844001    0.41495991    0.52604972    -0.14770000
opls_543-29    C    0.40892003    0.45724011    0.51354998    0.23610000
opls_700-30    C    0.61291989    0.50729005    0.44169006    -0.05360000
opls_700-31    C    0.38318012    0.49710015    0.49973946    -0.05130000
opls_700-32    C    0.33463990    0.49454002    0.46841032    0.07640000
opls_700-33    C    0.66114010    0.51000985    0.39901036    0.08700000
opls_145-34    C    0.69199993    0.48768005    0.57246986    -0.08570000
opls_145-35    C    0.73892003    0.49123013    0.53375073    -0.14240000
opls_145-36    C    0.75644007    0.51921015    0.32952962    0.22490000
opls_145-37    C    0.72632015    0.54305986    0.16299962    -0.14240000
opls_145-38    C    0.67929984    0.53752990    0.19172944    -0.08400000
opls_145-39    C    0.31490997    0.46796983    0.26164038    -0.08400000
opls_145-40    C    0.26763996    0.46417992    0.23652980    -0.14220000
opls_145-41    C    0.23859016    0.48931988    0.40365964    0.25330000
opls_145-42    C    0.25782002    0.51578985    0.61092036    -0.14250000
opls_145-43    C    0.30488993    0.51688986    0.64829035    -0.08570000
opls_142-44    C    0.51364010    0.84091996    0.69763093    0.04490000
opls_142-45    C    0.16112006    0.51522999    0.46599075    0.06060000
opls_142-46    C    0.83493987    0.49204987    0.34712096    0.04490000
opls_142-47    C    0.48100999    0.16433992    0.73993901    0.06040000
opls_166-48    C    0.54534006    0.00270010    0.68173005    0.19080000
opls_700-49    C    0.52158989    0.96199993    0.72260013    0.01580000
opls_567-50    C    0.47568997    0.96178013    0.78643992    -0.09520000
opls_166-51    C    0.45183992    0.00243987    0.82539939    0.19070000
opls_700-52    C    0.47584998    0.04312984    0.79011977    0.01590000
opls_567-53    C    0.52119989    0.04334998    0.71421041    -0.09540000
opls_166-54    C    0.99873013    0.55133000    0.35674065    0.19080000
opls_700-55    C    0.03835983    0.52532987    0.38245915    0.01590000
opls_567-56    C    0.03704002    0.47825995    0.39161028    -0.09520000
opls_166-57    C    0.99552011    0.45495991    0.38684992    0.18790000
opls_700-58    C    0.95577015    0.48103988    0.36707935    0.01580000
opls_567-59    C    0.95729005    0.52802011    0.34662008    -0.09520000
opls_716-60    C    0.45796983    0.08596005    0.81288954    -0.18300000
opls_567-61    C    0.49061014    0.11802996    0.74492961    -0.02520000
opls_716-62    C    0.53919011    0.91910993    0.69319977    -0.18320000
opls_567-63    C    0.50518005    0.88708011    0.72871973    -0.02550000
opls_716-64    C    0.91227001    0.46444014    0.36767920    -0.18330000
opls_567-65    C    0.88151991    0.49984984    0.34173045    -0.02550000
opls_716-66    C    0.08155014    0.54222992    0.40466948    -0.17860000
opls_567-67    C    0.11247996    0.50685997    0.42324036    -0.00630000
opls_182-68    C    0.60500985    0.04922000    0.62438955    0.10950000
opls_182-69    C    0.38823991    0.95623013    0.88348918    0.10950000
opls_135-70    C    0.33591996    0.95612006    0.88348918    -0.37630000
opls_182-71    C    0.04025003    0.39006998    0.39886091    0.10950000
opls_135-72    C    0.04135990    0.33775989    0.39886091    -0.37620000
opls_182-73    C    0.95653995    0.61747010    0.34489932    0.10950000
opls_135-74    C    0.95742017    0.66977986    0.34489932    -0.37630000
opls_135-75    C    0.65731995    0.04837002    0.62438955    -0.37620000
opls_146-76    H    0.44894993    0.67412013    0.25662957    0.04770000
opls_146-77    H    0.43816008    0.75862991    0.31490922    0.04770000
opls_146-78    H    0.53490997    0.75786996    0.99031971    0.04770000
opls_146-79    H    0.53711000    0.67178013    0.97608911    0.04770000
opls_146-80    H    0.46013996    0.24713004    0.93765072    0.04770000
opls_146-81    H    0.46153995    0.33325995    0.93439905    0.04770000
opls_146-82    H    0.54915987    0.33080989    0.21685012    0.04770000
opls_146-83    H    0.55674005    0.24557990    0.25948943    0.04770000
opls_547-84    H    0.57467998    0.65770995    0.56061034    0.04770000
opls_547-85    H    0.64525003    0.60080004    0.48326904    0.04770000
opls_547-86    H    0.40926009    0.64942995    0.66409024    0.04770000
opls_547-87    H    0.34403010    0.58914017    0.52618100    0.04770000
opls_547-88    H    0.58951998    0.35484984    0.56672995    0.04770000
opls_547-89    H    0.65169996    0.41644993    0.41316018    0.04770000
opls_547-90    H    0.42206991    0.34555986    0.53933916    0.04770000
opls_547-91    H    0.35146012    0.40344001    0.52761093    0.04770000
opls_146-92    H    0.67878007    0.46630996    0.74767031    0.04770000
opls_146-93    H    0.76318012    0.47130996    0.66861026    0.04770000
opls_146-94    H    0.73999015    0.56720988    0.00242966    0.04770000
opls_146-95    H    0.65559995    0.55561999    0.04481045    0.04770000
opls_146-96    H    0.33752004    0.44917992    0.11180094    0.04770000
opls_146-97    H    0.25240997    0.44043009    0.07875911    0.04770000
opls_146-98    H    0.23497996    0.53655014    0.74996062    0.04770000
opls_146-99    H    0.31912013    0.53635005    0.82848949    0.04770000
opls_144-100    H    0.17211985    0.54619004    0.58787995    0.02810000
opls_144-101    H    0.55025989    0.82848994    0.68543009    0.02810000
opls_144-102    H    0.82263011    0.45621008    0.39467009    0.02810000
opls_570-103    H    0.42119989    0.09066008    0.87965989    0.04770000
opls_570-104    H    0.57681988    0.91440005    0.64646053    0.04770000
opls_570-105    H    0.90607997    0.42635990    0.38775069    0.04770000
opls_570-106    H    0.08740997    0.58050992    0.40566922    0.04770000
opls_185-107    H    0.59291989    0.06857012    0.81046998    0.04350000
opls_185-108    H    0.59394007    0.06864995    0.43640054    0.04350000
opls_185-109    H    0.39999015    0.93594986    0.06680064    0.04350000
opls_185-110    H    0.39761007    0.93593015    0.69550017    0.04350000
opls_140-111    H    0.32309009    0.92082008    0.93967039    0.09710000
opls_140-112    H    0.32298988    0.96554015    0.67381092    0.09710000
opls_140-113    H    0.32295998    0.98190991    0.03698019    0.09710000
opls_185-114    H    0.06054015    0.40204987    0.58155030    0.04360000
opls_185-115    H    0.06057005    0.39938986    0.21086987    0.04350000
opls_140-116    H    0.02405999    0.32447989    0.20859976    0.09710000
opls_140-117    H    0.02270995    0.32444999    0.58449902    0.09710000
opls_140-118    H    0.07812984    0.32562984    0.40347989    0.09710000
opls_185-119    H    0.93589992    0.60619989    0.52784925    0.04350000
opls_185-120    H    0.93596005    0.60873998    0.15691031    0.04350000
opls_140-121    H    0.97534991    0.68238993    0.15512088    0.09710000
opls_140-122    H    0.97640984    0.68236989    0.53105043    0.09710000
opls_140-123    H    0.92112991    0.68330004    0.34853069    0.09710000
opls_140-124    H    0.67038015    0.05759988    0.41470927    0.09710000
opls_140-125    H    0.66965009    0.01289000    0.68059096    0.09710000
opls_140-126    H    0.67064988    0.07396997    0.77787046    0.09710000
opls_144-127    H    0.44977001    0.17798002    0.84921940    0.02810000
opls_542-128    N    0.54234984    0.54894007    0.52672026    -0.33160000
opls_542-129    N    0.45043994    0.54568997    0.55620948    -0.32930000
opls_542-130    N    0.54513011    0.45901006    0.50608931    -0.33230000
opls_542-131    N    0.45539985    0.45405014    0.53262981    -0.33160000
opls_750-132    N    0.19284006    0.48665002    0.36245027    -0.25570000
opls_750-133    N    0.47896012    0.81082994    0.68183911    -0.20910000
opls_750-134    N    0.51038015    0.19499015    0.59740068    -0.20650000
opls_750-135    N    0.80449008    0.52550992    0.29799043    -0.20590000
F2_Co4+2-136    Co    0.49738008    0.50273984    0.53135944    0.72210000
opls_633-137    S    0.54293009    0.09612006    0.65753035    0.08910000
opls_633-138    S    0.45211985    0.90892988    0.80149052    0.08910000
opls_633-139    S    0.90534991    0.55323991    0.31665017    0.08910000
opls_633-140    S    0.08917006    0.45316008    0.41625028    0.08910000
opls_179-141    O    0.58284006    0.00183992    0.62438955    -0.14590000
opls_179-142    O    0.41437016    0.00155999    0.88348918    -0.14640000
opls_179-143    O    0.00103003    0.58993987    0.34489932    -0.14640000
opls_179-144    O    0.99497996    0.41628992    0.39886091    -0.14590000
