#======================================================================
# Crystal Data Generated By AuToFF
#----------------------------------------------------------------------

data_AuToFF_phase_1

_cell_length_a                         25.0000
_cell_length_b                         25.0000
_cell_length_c                         5.0000
_cell_angle_alpha                      90.00
_cell_angle_beta                       90.00
_cell_angle_gamma                      90.00
_symmetry_space_group_name_H-M_alt     'P 1'
_symmetry_space_group_IT_number        1

loop_
_space_group_symop_operation_xyz
   'x, y, z'

loop_
   _atom_site_label
   _atom_site_type_symbol
   _atom_site_fract_x
   _atom_site_fract_y
   _atom_site_fract_z
   _atom_site_charge
opls_145-0    C    0.36249000    0.78084000    0.50000000    -0.12220000
opls_145-1    C    0.63751000    0.21916000    0.50000000    -0.12220000
opls_145-2    C    0.21916000    0.36249000    0.50000000    -0.12220000
opls_145-3    C    0.78084000    0.63751000    0.50000000    -0.12220000
opls_145-4    C    0.63751000    0.78084000    0.50000000    -0.12220000
opls_145-5    C    0.36249000    0.21916000    0.50000000    -0.12220000
opls_145-6    C    0.78084000    0.36249000    0.50000000    -0.12220000
opls_145-7    C    0.21916000    0.63751000    0.50000000    -0.12220000
opls_145-8    C    0.38006000    0.72695000    0.50000000    0.06580000
opls_145-9    C    0.61995000    0.27305000    0.50000000    0.06580000
opls_145-10    C    0.27305000    0.38006000    0.50000000    0.06580000
opls_145-11    C    0.72695000    0.61995000    0.50000000    0.06580000
opls_145-12    C    0.61995000    0.72695000    0.50000000    0.06580000
opls_145-13    C    0.38006000    0.27305000    0.50000000    0.06580000
opls_145-14    C    0.72695000    0.38006000    0.50000000    0.06580000
opls_145-15    C    0.27305000    0.61995000    0.50000000    0.06580000
opls_145-16    C    0.43532000    0.71476000    0.50000000    -0.07170000
opls_145-17    C    0.56469000    0.28524000    0.50000000    -0.07160000
opls_145-18    C    0.28524000    0.43532000    0.50000000    -0.07170000
opls_145-19    C    0.71476000    0.56469000    0.50000000    -0.07160000
opls_145-20    C    0.56469000    0.71476000    0.50000000    -0.07160000
opls_145-21    C    0.43532000    0.28524000    0.50000000    -0.07170000
opls_145-22    C    0.71476000    0.43532000    0.50000000    -0.07170000
opls_145-23    C    0.28524000    0.56469000    0.50000000    -0.07160000
opls_700-24    C    0.47215000    0.75730000    0.50000000    0.01960000
opls_700-25    C    0.52785000    0.24270000    0.50000000    0.01960000
opls_700-26    C    0.24270000    0.47215000    0.50000000    0.01960000
opls_700-27    C    0.75730000    0.52785000    0.50000000    0.01960000
opls_700-28    C    0.52785000    0.75730000    0.50000000    0.01960000
opls_700-29    C    0.47215000    0.24270000    0.50000000    0.01960000
opls_700-30    C    0.75730000    0.47215000    0.50000000    0.01960000
opls_700-31    C    0.24270000    0.52785000    0.50000000    0.01960000
opls_700-32    C    0.45473000    0.81050000    0.50000000    0.04170000
opls_700-33    C    0.54527000    0.18950000    0.50000000    0.04170000
opls_700-34    C    0.18950000    0.45473000    0.50000000    0.04170000
opls_700-35    C    0.81050000    0.54527000    0.50000000    0.04170000
opls_700-36    C    0.54527000    0.81050000    0.50000000    0.04170000
opls_700-37    C    0.45473000    0.18950000    0.50000000    0.04170000
opls_700-38    C    0.81050000    0.45473000    0.50000000    0.04170000
opls_700-39    C    0.18950000    0.54527000    0.50000000    0.04170000
opls_145-40    C    0.39992000    0.82292000    0.50000000    -0.15840000
opls_145-41    C    0.60008000    0.17708000    0.50000000    -0.15840000
opls_145-42    C    0.17708000    0.39992000    0.50000000    -0.15840000
opls_145-43    C    0.82292000    0.60008000    0.50000000    -0.15840000
opls_145-44    C    0.60008000    0.82292000    0.50000000    -0.15840000
opls_145-45    C    0.39992000    0.17708000    0.50000000    -0.15840000
opls_145-46    C    0.82292000    0.39992000    0.50000000    -0.15840000
opls_145-47    C    0.17708000    0.60008000    0.50000000    -0.15840000
opls_261-48    C    0.34481000    0.68893000    0.50000000    -0.00820000
opls_261-49    C    0.65519000    0.31108000    0.50000000    -0.00820000
opls_261-50    C    0.31108000    0.34481000    0.50000000    -0.00820000
opls_261-51    C    0.68893000    0.65519000    0.50000000    -0.00820000
opls_261-52    C    0.65519000    0.68893000    0.50000000    -0.00820000
opls_261-53    C    0.34481000    0.31108000    0.50000000    -0.00820000
opls_261-54    C    0.68893000    0.34481000    0.50000000    -0.00820000
opls_261-55    C    0.31108000    0.65519000    0.50000000    -0.00820000
opls_701-56    C    0.85145000    0.50000000    0.50000000    0.01200000
opls_701-57    C    0.14855000    0.50000000    0.50000000    0.01200000
opls_701-58    C    0.50000000    0.85145000    0.50000000    0.01200000
opls_701-59    C    0.50000000    0.14855000    0.50000000    0.01200000
opls_136-60    C    0.09944000    0.48730000    0.70637000    0.07290000
opls_136-61    C    0.90056000    0.51270000    0.70637000    0.03590000
opls_136-62    C    0.51270000    0.09944000    0.70637000    0.03590000
opls_136-63    C    0.48730000    0.90056000    0.70637000    0.07290000
opls_136-64    C    0.90056000    0.48730000    0.29363000    0.07290000
opls_136-65    C    0.09944000    0.51270000    0.29363000    0.03590000
opls_136-66    C    0.48730000    0.09944000    0.29363000    0.07290000
opls_136-67    C    0.51270000    0.90056000    0.29363000    0.03590000
opls_146-68    H    0.31783000    0.79005000    0.50000000    0.03080000
opls_146-69    H    0.68217000    0.20995000    0.50000000    0.03080000
opls_146-70    H    0.20995000    0.31783000    0.50000000    0.03080000
opls_146-71    H    0.79005000    0.68217000    0.50000000    0.03080000
opls_146-72    H    0.68217000    0.79005000    0.50000000    0.03080000
opls_146-73    H    0.31783000    0.20995000    0.50000000    0.03080000
opls_146-74    H    0.79005000    0.31783000    0.50000000    0.03080000
opls_146-75    H    0.20995000    0.68217000    0.50000000    0.03080000
opls_146-76    H    0.44907000    0.67128000    0.50000000    0.03080000
opls_146-77    H    0.55093000    0.32872000    0.50000000    0.03080000
opls_146-78    H    0.32872000    0.44907000    0.50000000    0.03080000
opls_146-79    H    0.67128000    0.55093000    0.50000000    0.03080000
opls_146-80    H    0.55093000    0.67128000    0.50000000    0.03080000
opls_146-81    H    0.44907000    0.32872000    0.50000000    0.03080000
opls_146-82    H    0.67128000    0.44907000    0.50000000    0.03080000
opls_146-83    H    0.32872000    0.55093000    0.50000000    0.03080000
opls_146-84    H    0.38635000    0.86275000    0.49842000    0.18270000
opls_146-85    H    0.61365000    0.13725000    0.49842000    0.18270000
opls_146-86    H    0.13725000    0.38635000    0.49842000    0.18270000
opls_146-87    H    0.86275000    0.61365000    0.49842000    0.18270000
opls_146-88    H    0.61365000    0.86275000    0.50158000    0.18280000
opls_146-89    H    0.38635000    0.13725000    0.50158000    0.18270000
opls_146-90    H    0.86275000    0.38635000    0.50158000    0.18270000
opls_146-91    H    0.13725000    0.61365000    0.50158000    0.18280000
opls_140-92    H    0.11560000    0.45706000    0.83724000    0.06500000
opls_140-93    H    0.88440000    0.54294000    0.83724000    0.06510000
opls_140-94    H    0.54294000    0.11560000    0.83724000    0.06500000
opls_140-95    H    0.45706000    0.88440000    0.83724000    0.06500000
opls_140-96    H    0.88440000    0.45706000    0.16276000    0.06500000
opls_140-97    H    0.11560000    0.54294000    0.16276000    0.06500000
opls_140-98    H    0.45706000    0.11560000    0.16276000    0.06500000
opls_140-99    H    0.54294000    0.88440000    0.16276000    0.06500000
opls_140-100    H    0.09277000    0.52602000    0.79376000    0.06780000
opls_140-101    H    0.90723000    0.47398000    0.79376000    0.06780000
opls_140-102    H    0.47398000    0.09277000    0.79376000    0.06780000
opls_140-103    H    0.52602000    0.90723000    0.79376000    0.06780000
opls_140-104    H    0.90723000    0.52602000    0.20624000    0.06780000
opls_140-105    H    0.09277000    0.47398000    0.20624000    0.06780000
opls_140-106    H    0.52602000    0.09277000    0.20624000    0.06780000
opls_140-107    H    0.47398000    0.90723000    0.20624000    0.06780000
MOF2_O_3-108    O    0.04399000    0.47097000    0.65642000    -0.66040000
opls_180-109    O    0.95601000    0.52904000    0.65642000    -0.46610000
opls_180-110    O    0.52904000    0.04399000    0.65642000    -0.46610000
MOF2_O_3-111    O    0.47097000    0.95601000    0.65642000    -0.66040000
MOF2_O_3-112    O    0.95601000    0.47097000    0.34358000    -0.66050000
opls_180-113    O    0.04399000    0.52904000    0.34358000    -0.46610000
MOF2_O_3-114    O    0.47097000    0.04399000    0.34358000    -0.66050000
opls_180-115    O    0.52904000    0.95601000    0.34358000    -0.46620000
MOF2_B_3-116    B    0.00000000    0.50000000    0.50000000    0.72010000
MOF2_B_3-117    B    0.50000000    0.00000000    0.50000000    0.72020000
opls_404-118    Li    0.40000000    0.00000000    0.50000000    0.71620000
opls_404-119    Li    0.00000000    0.40000000    0.50000000    0.71630000
