#======================================================================
# Crystal Data Generated By AuToFF
#----------------------------------------------------------------------

data_AuToFF_phase_1

_cell_length_a                         37.0995
_cell_length_b                         37.0995
_cell_length_c                         3.7800
_cell_angle_alpha                      90.00
_cell_angle_beta                       90.00
_cell_angle_gamma                      120.00
_symmetry_space_group_name_H-M_alt     'P 1'
_symmetry_space_group_IT_number        1

loop_
_space_group_symop_operation_xyz
   'x, y, z'

loop_
   _atom_site_label
   _atom_site_type_symbol
   _atom_site_fract_x
   _atom_site_fract_y
   _atom_site_fract_z
   _atom_site_charge
opls_144-0    H    0.91354004    0.28007001    0.77234127    0.14060000
opls_146-1    H    0.75281988    0.30184994    0.00000000    0.08690000
opls_526-2    H    0.82261994    0.32499998    0.00000000    0.22320000
opls_526-3    H    0.85031000    0.45281989    0.00000000    0.10890000
opls_146-4    H    0.77930994    0.42995993    0.00000000    0.08690000
opls_525-5    H    0.04349001    0.46653985    0.00000000    0.10530000
opls_146-6    H    0.28303998    0.59190995    0.00000000    0.22400000
opls_570-7    H    0.87329984    0.32099987    0.00000000    0.21720000
opls_144-8    H    0.96259997    0.29936995    0.00000000    0.10400000
opls_144-9    H    0.71992996    0.63347008    0.77234127    0.14060000
opls_146-10    H    0.69815006    0.45096985    0.00000000    0.08690000
opls_526-11    H    0.67500015    0.49762007    0.00000000    0.22320000
opls_526-12    H    0.54717989    0.39749000    0.00000000    0.10890000
opls_146-13    H    0.57003983    0.34934986    0.00000000    0.08700000
opls_525-14    H    0.53345997    0.57695000    0.00000000    0.10530000
opls_146-15    H    0.40809007    0.69112994    0.00000000    0.22400000
opls_570-16    H    0.67899994    0.55230008    0.00000000    0.21720000
opls_144-17    H    0.70062995    0.66323001    0.00000000    0.10400000
opls_144-18    H    0.36653000    0.08645991    0.77234127    0.14070000
opls_146-19    H    0.54902991    0.24717989    0.00000000    0.08690000
opls_526-20    H    0.50237992    0.17737995    0.00000000    0.22310000
opls_526-21    H    0.60251012    0.14969011    0.00000000    0.10890000
opls_146-22    H    0.65065007    0.22068990    0.00000000    0.08690000
opls_525-23    H    0.42304987    0.95650984    0.00000000    0.10530000
opls_146-24    H    0.30886995    0.71696010    0.00000000    0.22400000
opls_570-25    H    0.44769995    0.12670005    0.00000000    0.21720000
opls_144-26    H    0.33677007    0.03740004    0.00000000    0.10400000
opls_144-27    H    0.08645996    0.71992999    0.77234127    0.14060000
opls_146-28    H    0.24718012    0.69815006    0.00000000    0.08690000
opls_526-29    H    0.17738006    0.67500002    0.00000000    0.22310000
opls_526-30    H    0.14969000    0.54718011    0.00000000    0.10890000
opls_146-31    H    0.22069006    0.57004007    0.00000000    0.08690000
opls_525-32    H    0.95650984    0.53345984    0.00000000    0.10530000
opls_146-33    H    0.71696002    0.40809005    0.00000000    0.22400000
opls_570-34    H    0.12670016    0.67900013    0.00000000    0.21720000
opls_144-35    H    0.03740003    0.70063005    0.00000000    0.10400000
opls_144-36    H    0.28007004    0.36652992    0.77234127    0.14060000
opls_146-37    H    0.30184979    0.54902984    0.00000000    0.08690000
opls_526-38    H    0.32499985    0.50237993    0.00000000    0.22310000
opls_526-39    H    0.45282011    0.60251000    0.00000000    0.10890000
opls_146-40    H    0.42996017    0.65065014    0.00000000    0.08690000
opls_525-41    H    0.46654003    0.42305000    0.00000000    0.10530000
opls_146-42    H    0.59190993    0.30887006    0.00000000    0.22400000
opls_570-43    H    0.32100006    0.44769992    0.00000000    0.21720000
opls_144-44    H    0.29937005    0.33676999    0.00000000    0.10400000
opls_144-45    H    0.63347000    0.91354009    0.77234127    0.14060000
opls_146-46    H    0.45097009    0.75282011    0.00000000    0.08690000
opls_526-47    H    0.49762008    0.82262005    0.00000000    0.22310000
opls_526-48    H    0.39748988    0.85030989    0.00000000    0.10890000
opls_146-49    H    0.34934993    0.77931010    0.00000000    0.08690000
opls_525-50    H    0.57694998    0.04348984    0.00000000    0.10530000
opls_146-51    H    0.69113005    0.28303990    0.00000000    0.22400000
opls_570-52    H    0.55230005    0.87329995    0.00000000    0.21720000
opls_144-53    H    0.66322993    0.96259996    0.00000000    0.10400000
opls_700-54    C    0.75697011    0.36291015    0.00000000    0.05730000
opls_145-55    C    0.77259986    0.33509985    0.00000000    -0.13990000
opls_523-56    C    0.81529002    0.34907005    0.00000000    -0.09060000
opls_700-57    C    0.84530011    0.39167005    0.00000000    0.01570000
opls_523-58    C    0.82965997    0.41946011    0.00000000    -0.14170000
opls_145-59    C    0.78711004    0.40569004    0.00000000    -0.12870000
opls_521-60    C    0.89230994    0.41013990    0.00000000    0.04300000
opls_521-61    C    0.95673996    0.47589989    0.00000000    0.16870000
opls_700-62    C    0.98075996    0.45634006    0.00000000    0.03930000
opls_522-63    C    0.02406996    0.48067998    0.00000000    -0.21970000
opls_700-64    C    0.28963994    0.65236012    0.00000000    0.05700000
opls_145-65    C    0.30479005    0.62424014    0.00000000    -0.18070000
opls_567-66    C    0.41272991    0.45301006    0.00000000    -0.03390000
opls_700-67    C    0.08383007    0.61070008    0.00000000    0.04410000
opls_716-68    C    0.90382009    0.34729004    0.00000000    -0.17980000
opls_567-69    C    0.93710020    0.34053013    0.00000000    0.05310000
opls_143-70    C    0.93199999    0.29796001    0.00000000    -0.40310000
opls_700-71    C    0.63709015    0.39406009    0.00000000    0.05730000
opls_145-72    C    0.66490002    0.43750014    0.00000000    -0.13990000
opls_523-73    C    0.65092986    0.46621989    0.00000000    -0.09060000
opls_700-74    C    0.60833014    0.45363006    0.00000000    0.01570000
opls_523-75    C    0.58054009    0.41019997    0.00000000    -0.14160000
opls_145-76    C    0.59430997    0.38141984    0.00000000    -0.12870000
opls_521-77    C    0.58986000    0.48216991    0.00000000    0.04300000
opls_521-78    C    0.52410008    0.48083996    0.00000000    0.16860000
opls_700-79    C    0.54365992    0.52442007    0.00000000    0.03930000
opls_522-80    C    0.51931995    0.54339009    0.00000000    -0.21970000
opls_700-81    C    0.34764013    0.63728002    0.00000000    0.05730000
opls_145-82    C    0.37576018    0.68055013    0.00000000    -0.18070000
opls_567-83    C    0.54699002    0.95972002    0.00000000    -0.03390000
opls_700-84    C    0.38930001    0.47313013    0.00000000    0.04410000
opls_716-85    C    0.65270988    0.55652989    0.00000000    -0.17980000
opls_567-86    C    0.65946987    0.59656990    0.00000000    0.05310000
opls_143-87    C    0.70204000    0.63403997    0.00000000    -0.40320000
opls_700-88    C    0.60594016    0.24303007    0.00000000    0.05730000
opls_145-89    C    0.56250012    0.22740001    0.00000000    -0.13990000
opls_523-90    C    0.53378012    0.18471007    0.00000000    -0.09060000
opls_700-91    C    0.54637002    0.15469990    0.00000000    0.01580000
opls_523-92    C    0.58979994    0.17033992    0.00000000    -0.14160000
opls_145-93    C    0.61857999    0.21289012    0.00000000    -0.12870000
opls_521-94    C    0.51782990    0.10768988    0.00000000    0.04230000
opls_521-95    C    0.51915996    0.04326015    0.00000000    0.16860000
opls_700-96    C    0.47557986    0.01923987    0.00000000    0.03940000
opls_522-97    C    0.45661009    0.97592993    0.00000000    -0.21970000
opls_700-98    C    0.36271992    0.71035986    0.00000000    0.05700000
opls_145-99    C    0.31944993    0.69521004    0.00000000    -0.18070000
opls_567-100    C    0.04028007    0.58726992    0.00000000    -0.03390000
opls_700-101    C    0.52687008    0.91617010    0.00000000    0.04410000
opls_716-102    C    0.44347003    0.09618007    0.00000000    -0.17980000
opls_567-103    C    0.40342993    0.06289997    0.00000000    0.05320000
opls_143-104    C    0.36596001    0.06800002    0.00000000    -0.40330000
opls_700-105    C    0.24302989    0.63708985    0.00000000    0.05730000
opls_145-106    C    0.22739999    0.66489984    0.00000000    -0.13990000
opls_523-107    C    0.18470998    0.65092995    0.00000000    -0.09060000
opls_700-108    C    0.15469989    0.60832995    0.00000000    0.01570000
opls_523-109    C    0.17034003    0.58053989    0.00000000    -0.14160000
opls_145-110    C    0.21288996    0.59430996    0.00000000    -0.12860000
opls_521-111    C    0.10769006    0.58986010    0.00000000    0.04300000
opls_521-112    C    0.04326004    0.52410011    0.00000000    0.16860000
opls_700-113    C    0.01924004    0.54365994    0.00000000    0.03930000
opls_522-114    C    0.97593004    0.51932002    0.00000000    -0.21970000
opls_700-115    C    0.71036006    0.34763988    0.00000000    0.05700000
opls_145-116    C    0.69520995    0.37575986    0.00000000    -0.18070000
opls_567-117    C    0.58727009    0.54698994    0.00000000    -0.03390000
opls_700-118    C    0.91616993    0.38929992    0.00000000    0.04410000
opls_716-119    C    0.09617991    0.65270996    0.00000000    -0.17980000
opls_567-120    C    0.06289980    0.65946987    0.00000000    0.05310000
opls_143-121    C    0.06800001    0.70203999    0.00000000    -0.40330000
opls_700-122    C    0.36290985    0.60593991    0.00000000    0.05730000
opls_145-123    C    0.33509998    0.56249986    0.00000000    -0.13980000
opls_523-124    C    0.34907014    0.53378011    0.00000000    -0.09060000
opls_700-125    C    0.39166986    0.54636994    0.00000000    0.01570000
opls_523-126    C    0.41945991    0.58980003    0.00000000    -0.14170000
opls_145-127    C    0.40568988    0.61857985    0.00000000    -0.12870000
opls_521-128    C    0.41014000    0.51783009    0.00000000    0.04300000
opls_521-129    C    0.47589992    0.51916004    0.00000000    0.16860000
opls_700-130    C    0.45634008    0.47557993    0.00000000    0.03930000
opls_522-131    C    0.48068005    0.45660991    0.00000000    -0.21970000
opls_700-132    C    0.65235987    0.36271998    0.00000000    0.05730000
opls_145-133    C    0.62423982    0.31944987    0.00000000    -0.18070000
opls_567-134    C    0.45300998    0.04027998    0.00000000    -0.03390000
opls_700-135    C    0.61069999    0.52686987    0.00000000    0.04410000
opls_716-136    C    0.34729012    0.44347011    0.00000000    -0.17960000
opls_567-137    C    0.34053013    0.40343010    0.00000000    0.05310000
opls_143-138    C    0.29796000    0.36596003    0.00000000    -0.40310000
opls_700-139    C    0.39405984    0.75696993    0.00000000    0.05730000
opls_145-140    C    0.43749988    0.77259999    0.00000000    -0.13990000
opls_523-141    C    0.46621988    0.81528993    0.00000000    -0.09060000
opls_700-142    C    0.45362998    0.84530010    0.00000000    0.01570000
opls_523-143    C    0.41020006    0.82966008    0.00000000    -0.14170000
opls_145-144    C    0.38142001    0.78710988    0.00000000    -0.12870000
opls_521-145    C    0.48217010    0.89231012    0.00000000    0.04230000
opls_521-146    C    0.48084004    0.95673985    0.00000000    0.16870000
opls_700-147    C    0.52442014    0.98076013    0.00000000    0.03930000
opls_522-148    C    0.54338991    0.02407007    0.00000000    -0.21970000
opls_700-149    C    0.63728008    0.28964014    0.00000000    0.05700000
opls_145-150    C    0.68055007    0.30478996    0.00000000    -0.18070000
opls_567-151    C    0.95971993    0.41273008    0.00000000    -0.03390000
opls_700-152    C    0.47312992    0.08382990    0.00000000    0.04410000
opls_716-153    C    0.55652997    0.90381993    0.00000000    -0.17970000
opls_567-154    C    0.59657007    0.93710003    0.00000000    0.05310000
opls_143-155    C    0.63403999    0.93199998    0.00000000    -0.40320000
opls_520-156    N    0.91463991    0.45264995    0.00000000    -0.32730000
opls_520-157    N    0.54734998    0.46199008    0.00000000    -0.32730000
opls_520-158    N    0.53801011    0.08535997    0.00000000    -0.32720000
opls_520-159    N    0.08536009    0.54735005    0.00000000    -0.32730000
opls_520-160    N    0.45265002    0.53800992    0.00000000    -0.32720000
opls_520-161    N    0.46198989    0.91464003    0.00000000    -0.32720000
opls_633-162    S    0.98464009    0.38432997    0.00000000    0.07030000
opls_633-163    S    0.61567010    0.60031012    0.00000000    0.07030000
opls_633-164    S    0.39968982    0.01535990    0.00000000    0.07030000
opls_633-165    S    0.01535991    0.61567003    0.00000000    0.07030000
opls_633-166    S    0.38432990    0.39968988    0.00000000    0.07030000
opls_633-167    S    0.60031018    0.98464010    0.00000000    0.07030000
