#======================================================================
# Crystal Data Generated By AuToFF
#----------------------------------------------------------------------

data_AuToFF_phase_1

_cell_length_a                         44.7305
_cell_length_b                         44.7305
_cell_length_c                         3.5151
_cell_angle_alpha                      90.00
_cell_angle_beta                       90.00
_cell_angle_gamma                      120.00
_symmetry_space_group_name_H-M_alt     'P 1'
_symmetry_space_group_IT_number        1

loop_
_space_group_symop_operation_xyz
   'x, y, z'

loop_
   _atom_site_label
   _atom_site_type_symbol
   _atom_site_fract_x
   _atom_site_fract_y
   _atom_site_fract_z
   _atom_site_charge
opls_700-0    C    0.01907990    0.51059987    0.00000000    0.07240000
opls_145-1    C    0.03947008    0.49488006    0.00000000    -0.10380000
opls_145-2    C    0.07542993    0.51487993    0.00000000    -0.14950000
opls_145-3    C    0.09172997    0.55106995    0.00000000    0.17390000
opls_916-4    C    0.07145002    0.56691006    0.00000000    0.21670000
opls_145-5    C    0.03546994    0.54677001    0.00000000    -0.16690000
opls_142-6    C    0.14907999    0.55932004    0.00000000    0.01940000
opls_700-7    C    0.18666997    0.58171990    0.00000000    0.06270000
opls_145-8    C    0.20756990    0.56672987    0.00000000    -0.10220000
opls_145-9    C    0.24347995    0.58751993    0.00000000    -0.08330000
opls_700-10    C    0.25901988    0.62365987    0.00000000    0.06880000
opls_145-11    C    0.23784008    0.63853012    0.00000000    -0.08310000
opls_145-12    C    0.20193002    0.61774006    0.00000000    -0.10380000
opls_700-13    C    0.29709012    0.64569006    0.00000000    0.07860000
opls_145-14    C    0.31823997    0.63083994    0.00000000    -0.08970000
opls_700-15    C    0.48939989    0.50847997    0.00000000    0.07240000
opls_145-16    C    0.50512001    0.54458997    0.00000000    -0.10380000
opls_145-17    C    0.48512007    0.56055011    0.00000000    -0.14940000
opls_145-18    C    0.44892993    0.54067002    0.00000000    0.17380000
opls_916-19    C    0.43308997    0.50453989    0.00000000    0.21620000
opls_145-20    C    0.45323009    0.48870004    0.00000000    -0.16690000
opls_142-21    C    0.44068013    0.58976012    0.00000000    0.01940000
opls_700-22    C    0.41828008    0.60494995    0.00000000    0.06270000
opls_145-23    C    0.43327007    0.64084001    0.00000000    -0.10220000
opls_145-24    C    0.41248000    0.65595988    0.00000000    -0.08330000
opls_700-25    C    0.37634000    0.63536989    0.00000000    0.06880000
opls_145-26    C    0.36147008    0.59930998    0.00000000    -0.08310000
opls_145-27    C    0.38226015    0.58419010    0.00000000    -0.10380000
opls_700-28    C    0.35431000    0.65139999    0.00000000    0.08150000
opls_145-29    C    0.36916004    0.68740002    0.00000000    -0.08970000
opls_700-30    C    0.49151986    0.98091990    0.00000000    0.07240000
opls_145-31    C    0.45540991    0.96052997    0.00000000    -0.10380000
opls_145-32    C    0.43945000    0.92456996    0.00000000    -0.14950000
opls_145-33    C    0.45932994    0.90827010    0.00000000    0.17380000
opls_916-34    C    0.49546001    0.92855006    0.00000000    0.21750000
opls_145-35    C    0.51129997    0.96452995    0.00000000    -0.16690000
opls_142-36    C    0.41024001    0.85092010    0.00000000    0.09190000
opls_700-37    C    0.39505005    0.81332989    0.00000000    0.06270000
opls_145-38    C    0.35915990    0.79242986    0.00000000    -0.10220000
opls_145-39    C    0.34403991    0.75651993    0.00000000    -0.08330000
opls_700-40    C    0.36463004    0.74098005    0.00000000    0.06880000
opls_145-41    C    0.40069006    0.76215991    0.00000000    -0.08310000
opls_145-42    C    0.41580996    0.79807010    0.00000000    -0.10380000
opls_700-43    C    0.34859988    0.70290995    0.00000000    0.07850000
opls_145-44    C    0.31259999    0.68176004    0.00000000    -0.08970000
opls_700-45    C    0.98091997    0.48939987    0.00000000    0.07240000
opls_145-46    C    0.96052992    0.50511994    0.00000000    -0.10380000
opls_145-47    C    0.92457007    0.48512007    0.00000000    -0.14950000
opls_145-48    C    0.90827003    0.44893005    0.00000000    0.17380000
opls_916-49    C    0.92854998    0.43308994    0.00000000    0.21670000
opls_145-50    C    0.96453006    0.45322999    0.00000000    -0.16690000
opls_142-51    C    0.85092001    0.44067996    0.00000000    0.01940000
opls_700-52    C    0.81333003    0.41828010    0.00000000    0.06270000
opls_145-53    C    0.79242998    0.43326987    0.00000000    -0.10220000
opls_145-54    C    0.75652005    0.41248007    0.00000000    -0.08330000
opls_700-55    C    0.74097999    0.37633988    0.00000000    0.06880000
opls_145-56    C    0.76215992    0.36146988    0.00000000    -0.08310000
opls_145-57    C    0.79806998    0.38225994    0.00000000    -0.10380000
opls_700-58    C    0.70290988    0.35430994    0.00000000    0.07850000
opls_145-59    C    0.68176003    0.36916006    0.00000000    -0.08970000
opls_700-60    C    0.51060011    0.49152003    0.00000000    0.07240000
opls_145-61    C    0.49487999    0.45541003    0.00000000    -0.10380000
opls_145-62    C    0.51487993    0.43944989    0.00000000    -0.14950000
opls_145-63    C    0.55107007    0.45932998    0.00000000    0.17380000
opls_916-64    C    0.56691003    0.49546011    0.00000000    0.21620000
opls_145-65    C    0.54676991    0.51129996    0.00000000    -0.16690000
opls_142-66    C    0.55931987    0.41023988    0.00000000    0.01940000
opls_700-67    C    0.58171992    0.39505005    0.00000000    0.06270000
opls_145-68    C    0.56672993    0.35915999    0.00000000    -0.10220000
opls_145-69    C    0.58752000    0.34404012    0.00000000    -0.08330000
opls_700-70    C    0.62366000    0.36463011    0.00000000    0.06880000
opls_145-71    C    0.63852992    0.40069002    0.00000000    -0.08310000
opls_145-72    C    0.61773985    0.41580990    0.00000000    -0.10370000
opls_700-73    C    0.64569000    0.34860001    0.00000000    0.08150000
opls_145-74    C    0.63083996    0.31259998    0.00000000    -0.08970000
opls_700-75    C    0.50848014    0.01908010    0.00000000    0.07240000
opls_145-76    C    0.54459009    0.03947003    0.00000000    -0.10380000
opls_145-77    C    0.56055000    0.07543004    0.00000000    -0.14950000
opls_145-78    C    0.54067006    0.09172990    0.00000000    0.17380000
opls_916-79    C    0.50453999    0.07144994    0.00000000    0.21760000
opls_145-80    C    0.48870003    0.03547005    0.00000000    -0.16690000
opls_142-81    C    0.58975999    0.14907990    0.00000000    0.09200000
opls_700-82    C    0.60494995    0.18667011    0.00000000    0.06270000
opls_145-83    C    0.64083997    0.20756988    0.00000000    -0.10220000
opls_145-84    C    0.65596009    0.24348007    0.00000000    -0.08330000
opls_700-85    C    0.63536996    0.25901995    0.00000000    0.06880000
opls_145-86    C    0.59930994    0.23784009    0.00000000    -0.08310000
opls_145-87    C    0.58419004    0.20192990    0.00000000    -0.10380000
opls_700-88    C    0.65140012    0.29709005    0.00000000    0.07850000
opls_145-89    C    0.68740001    0.31823996    0.00000000    -0.08970000
opls_750-90    N    0.12862994    0.57202006    0.00000000    -0.31580000
opls_237-91    N    0.51633004    0.91277991    0.00000000    -0.48740000
opls_750-92    N    0.42798007    0.55661003    0.00000000    -0.31570000
opls_237-93    N    0.08722007    0.60355003    0.00000000    -0.48720000
opls_750-94    N    0.44338999    0.87136992    0.00000000    -0.31570000
opls_237-95    N    0.39645012    0.48367006    0.00000000    -0.48740000
opls_750-96    N    0.87137006    0.42797994    0.00000000    -0.31570000
opls_237-97    N    0.48366996    0.08722009    0.00000000    -0.48740000
opls_750-98    N    0.57201993    0.44338997    0.00000000    -0.31570000
opls_237-99    N    0.91277993    0.39644997    0.00000000    -0.48740000
opls_750-100    N    0.55661001    0.12863008    0.00000000    -0.31580000
opls_237-101    N    0.60354988    0.51632994    0.00000000    -0.48740000
opls_146-102    H    0.02670006    0.46553994    0.00000000    0.04590000
opls_146-103    H    0.09175989    0.50183994    0.00000000    0.04580000
opls_146-104    H    0.01904006    0.55970003    0.00000000    0.04580000
opls_144-105    H    0.13791011    0.53015005    0.00000000    0.02710000
opls_146-106    H    0.19532996    0.53743003    0.00000000    0.04580000
opls_146-107    H    0.26046009    0.57519009    0.00000000    0.04580000
opls_146-108    H    0.24991000    0.66781008    0.00000000    0.04580000
opls_146-109    H    0.18495995    0.63009003    0.00000000    0.04530000
opls_146-110    H    0.30617005    0.60155998    0.00000000    0.04580000
opls_909-111    H    0.50670011    0.88714006    0.86499957    0.28680000
opls_909-112    H    0.54222985    0.92611987    0.13500043    0.28680000
opls_146-113    H    0.53446007    0.56116011    0.00000000    0.04580000
opls_146-114    H    0.49816001    0.58991991    0.00000000    0.04580000
opls_146-115    H    0.44030013    0.45934005    0.00000000    0.04580000
opls_144-116    H    0.46984993    0.60775006    0.00000000    0.02710000
opls_146-117    H    0.46257007    0.65790011    0.00000000    0.04580000
opls_146-118    H    0.42481005    0.68527005    0.00000000    0.04580000
opls_146-119    H    0.33218988    0.58209989    0.00000000    0.04580000
opls_146-120    H    0.36990998    0.55487993    0.00000000    0.04580000
opls_146-121    H    0.39844002    0.70461010    0.00000000    0.04580000
opls_909-122    H    0.11396985    0.61965989    0.89217092    0.28690000
opls_909-123    H    0.07276996    0.61600996    0.10782908    0.28680000
opls_146-124    H    0.43883987    0.97329995    0.00000000    0.04580000
opls_146-125    H    0.41007997    0.90823990    0.00000000    0.04580000
opls_146-126    H    0.54066004    0.98095992    0.00000000    0.04580000
opls_144-127    H    0.39225003    0.86209008    0.00000000    0.02710000
opls_146-128    H    0.34209997    0.80466986    0.00000000    0.04580000
opls_146-129    H    0.31472998    0.73954011    0.00000000    0.04580000
opls_146-130    H    0.41790011    0.75009003    0.00000000    0.04580000
opls_146-131    H    0.44512013    0.81504011    0.00000000    0.04580000
opls_146-132    H    0.29538994    0.69382992    0.00000000    0.04580000
opls_909-133    H    0.38356990    0.46106989    0.80695002    0.28900000
opls_909-134    H    0.38075996    0.49000987    0.19304998    0.28680000
opls_146-135    H    0.97329994    0.53446006    0.00000000    0.04580000
opls_146-136    H    0.90824011    0.49816006    0.00000000    0.04580000
opls_146-137    H    0.98095994    0.44029997    0.00000000    0.04580000
opls_144-138    H    0.86208989    0.46984995    0.00000000    0.02710000
opls_146-139    H    0.80467004    0.46256997    0.00000000    0.04580000
opls_146-140    H    0.73953991    0.42480991    0.00000000    0.04580000
opls_146-141    H    0.75009000    0.33218992    0.00000000    0.04580000
opls_146-142    H    0.81504005    0.36990997    0.00000000    0.04530000
opls_146-143    H    0.69382995    0.39844002    0.00000000    0.04580000
opls_909-144    H    0.45777002    0.07387987    0.86499957    0.28680000
opls_909-145    H    0.49329989    0.11285994    0.13500043    0.28690000
opls_146-146    H    0.46553993    0.43883989    0.00000000    0.04580000
opls_146-147    H    0.50183999    0.41008009    0.00000000    0.04580000
opls_146-148    H    0.55969987    0.54065995    0.00000000    0.04580000
opls_144-149    H    0.53015007    0.39224994    0.00000000    0.02710000
opls_146-150    H    0.53742993    0.34209989    0.00000000    0.04580000
opls_146-151    H    0.57518995    0.31472995    0.00000000    0.04580000
opls_146-152    H    0.66781012    0.41790011    0.00000000    0.04580000
opls_146-153    H    0.63009002    0.44512007    0.00000000    0.04580000
opls_146-154    H    0.60155998    0.29538990    0.00000000    0.04580000
opls_909-155    H    0.92723004    0.38399004    0.89217092    0.28690000
opls_909-156    H    0.88603015    0.38034011    0.10782908    0.28680000
opls_146-157    H    0.56116013    0.02670005    0.00000000    0.04580000
opls_146-158    H    0.58992003    0.09176010    0.00000000    0.04580000
opls_146-159    H    0.45933996    0.01904008    0.00000000    0.04580000
opls_144-160    H    0.60774997    0.13790992    0.00000000    0.02710000
opls_146-161    H    0.65789990    0.19532988    0.00000000    0.04580000
opls_146-162    H    0.68527002    0.26045989    0.00000000    0.04590000
opls_146-163    H    0.58209989    0.24990997    0.00000000    0.04580000
opls_146-164    H    0.55487987    0.18495989    0.00000000    0.04580000
opls_146-165    H    0.70461006    0.30617008    0.00000000    0.04580000
opls_909-166    H    0.61923991    0.50998987    0.80695002    0.28680000
opls_909-167    H    0.61643010    0.53893011    0.19304998    0.28890000
