#======================================================================
# Crystal Data Generated By AuToFF
#----------------------------------------------------------------------

data_AuToFF_phase_1

_cell_length_a                         22.6678
_cell_length_b                         22.6687
_cell_length_c                         7.0023
_cell_angle_alpha                      90.40
_cell_angle_beta                       90.46
_cell_angle_gamma                      59.99
_symmetry_space_group_name_H-M_alt     'P 1'
_symmetry_space_group_IT_number        1

loop_
_space_group_symop_operation_xyz
   'x, y, z'

loop_
   _atom_site_label
   _atom_site_type_symbol
   _atom_site_fract_x
   _atom_site_fract_y
   _atom_site_fract_z
   _atom_site_charge
opls_700-0    C    0.02309012    0.04703997    0.00006998    0.06250000
opls_145-1    C    0.95325019    0.06979988    0.00008997    -0.18040000
opls_700-2    C    0.92960994    0.02317036    0.99990003    0.06140000
opls_145-3    C    0.97667009    0.95332980    0.99987004    -0.18000000
opls_700-4    C    0.04694027    0.92969008    0.99982005    0.06140000
opls_145-5    C    0.06972026    0.97674979    0.99978006    -0.17930000
opls_142-6    C    0.04356974    0.09859023    0.00046986    0.07990000
opls_142-7    C    0.85752007    0.04376015    0.99950014    0.07560000
opls_142-8    C    0.09841988    0.85760019    0.99959012    0.07560000
opls_145-9    C    0.73943029    0.13287979    0.00043987    0.15890000
opls_700-10    C    0.70010991    0.20563977    0.00083976    0.04920000
opls_700-11    C    0.70522993    0.09436987    0.00019994    0.05120000
opls_700-12    C    0.62862982    0.23934995    0.00022993    0.05150000
opls_700-13    C    0.63367979    0.12820017    0.00036989    0.04970000
opls_145-14    C    0.59430002    0.20099017    0.00030991    0.15800000
opls_145-15    C    0.13269013    0.12757988    0.00008997    0.15890000
opls_700-16    C    0.20543003    0.09408000    0.00018994    0.04990000
opls_700-17    C    0.09417037    0.20034004    0.99979006    0.04990000
opls_700-18    C    0.23918001    0.13178040    0.99996001    0.05160000
opls_700-19    C    0.12807005    0.23799010    0.00048986    0.04970000
opls_145-20    C    0.20085994    0.20445001    0.00018994    0.15700000
opls_145-21    C    0.12721029    0.73955968    0.00031991    0.15810000
opls_700-22    C    0.09360034    0.70041963    0.00095972    0.04970000
opls_700-23    C    0.19990987    0.70526977    0.00005998    0.05130000
opls_700-24    C    0.13123003    0.62892996    0.99998001    0.05120000
opls_700-25    C    0.23751980    0.63374007    0.00010997    0.04960000
opls_145-26    C    0.20397033    0.59449003    0.99993002    0.15830000
opls_142-27    C    0.23343006    0.47596968    0.00069980    0.07540000
opls_145-28    C    0.38011995    0.26345027    0.99993002    -0.17140000
opls_142-29    C    0.28996005    0.23375022    0.99965010    0.07510000
opls_142-30    C    0.47579972    0.29006008    0.00054984    0.07500000
opls_145-31    C    0.35590975    0.38026008    0.00009997    -0.17140000
opls_700-32    C    0.28556002    0.40370018    0.00021994    0.05270000
opls_700-33    C    0.31026016    0.28574037    0.99984005    0.05270000
opls_145-34    C    0.26332022    0.35608029    0.99998001    -0.17160000
opls_700-35    C    0.40350026    0.31037983    0.00010997    0.05270000
opls_148-36    C    0.24658012    0.01717004    0.00044987    -0.42950000
opls_148-37    C    0.73588989    0.24676989    0.00128963    -0.42950000
opls_148-38    C    0.01665992    0.73655979    0.00167951    -0.43110000
opls_148-39    C    0.74417012    0.01756034    0.99966010    -0.43390000
opls_148-40    C    0.59009019    0.31614032    0.99922023    -0.42950000
opls_148-41    C    0.01736001    0.23802001    0.99865039    -0.43390000
opls_148-42    C    0.31597020    0.09335002    0.99978006    -0.42950000
opls_148-43    C    0.23785015    0.74412032    0.99972008    -0.43390000
opls_148-44    C    0.09294990    0.59040028    0.99897030    -0.43220000
opls_148-45    C    0.08758018    0.31495998    0.00049986    -0.43240000
opls_148-46    C    0.31447014    0.59757979    0.00003999    -0.43240000
opls_148-47    C    0.59758008    0.08735976    0.00021994    -0.43250000
opls_700-48    C    0.97653999    0.95293003    0.49976078    0.05880000
opls_145-49    C    0.04643012    0.93005003    0.49985076    -0.17920000
opls_700-50    C    0.07017024    0.97660982    0.50010069    0.05970000
opls_145-51    C    0.02311993    0.04650029    0.50011068    -0.17940000
opls_700-52    C    0.95283030    0.07024994    0.50008069    0.06140000
opls_145-53    C    0.93000992    0.02322016    0.50001071    -0.18040000
opls_142-54    C    0.95581023    0.90151992    0.49897958    0.08210000
opls_142-55    C    0.14224997    0.95606985    0.50041060    0.07990000
opls_142-56    C    0.90116984    0.14230021    0.49998072    0.07560000
opls_145-57    C    0.26043995    0.86690021    0.50026064    0.11990000
opls_700-58    C    0.29951999    0.79414983    0.50023065    0.04990000
opls_700-59    C    0.29476004    0.90541975    0.50002071    0.04990000
opls_700-60    C    0.37100998    0.76021013    0.50017066    0.05160000
opls_700-61    C    0.36632028    0.87135974    0.50118037    0.05180000
opls_145-62    C    0.40537000    0.79848010    0.50039060    0.14850000
opls_145-63    C    0.86665008    0.87263018    0.50027064    0.14850000
opls_700-64    C    0.79389001    0.90604986    0.50041060    0.04970000
opls_700-65    C    0.90516006    0.79988982    0.50009069    0.05120000
opls_700-66    C    0.76018000    0.86828002    0.50009069    0.05120000
opls_700-67    C    0.87135998    0.76214978    0.50041060    0.04960000
opls_145-68    C    0.79855024    0.79557975    0.50021065    0.14980000
opls_145-69    C    0.87190017    0.26063997    0.50029063    0.14650000
opls_700-70    C    0.90554030    0.29970981    0.50015067    0.04990000
opls_700-71    C    0.79898009    0.29497986    0.50017066    0.04970000
opls_700-72    C    0.86793002    0.37119983    0.50014067    0.05130000
opls_700-73    C    0.76149014    0.36653996    0.50126035    0.05190000
opls_145-74    C    0.79534024    0.40554986    0.50041060    0.15700000
opls_142-75    C    0.76599012    0.52393013    0.49923094    0.07810000
opls_145-76    C    0.61942010    0.73633010    0.50023065    -0.17060000
opls_142-77    C    0.70947014    0.76620994    0.50047058    0.07810000
opls_142-78    C    0.52383979    0.70945013    0.49946087    0.07540000
opls_145-79    C    0.64375001    0.61949999    0.50012068    -0.17140000
opls_700-80    C    0.71405031    0.59621993    0.50007069    0.05420000
opls_700-81    C    0.68926987    0.71415005    0.50033062    0.05270000
opls_145-82    C    0.73628011    0.64382996    0.50016067    -0.17140000
opls_700-83    C    0.59609002    0.68932023    0.50019066    0.05270000
opls_148-84    C    0.75263997    0.98295981    0.50058055    -0.42940000
opls_148-85    C    0.26365975    0.75310018    0.50019066    -0.42950000
opls_148-86    C    0.98244998    0.26393014    0.50014067    -0.42950000
opls_148-87    C    0.25522992    0.98221002    0.49806985    -0.42270000
opls_148-88    C    0.40939010    0.68341001    0.49983076    -0.43440000
opls_148-89    C    0.98196000    0.76198011    0.49909098    -0.42280000
opls_148-90    C    0.68336026    0.90656994    0.49952085    -0.43210000
opls_148-91    C    0.76204991    0.25513014    0.49818981    -0.42280000
opls_148-92    C    0.90638013    0.40952987    0.49990074    -0.43450000
opls_148-93    C    0.91217021    0.68520976    0.50023065    -0.43240000
opls_148-94    C    0.68444987    0.40469014    0.50099043    -0.43200000
opls_148-95    C    0.40390987    0.91076002    0.50089046    -0.43190000
opls_144-96    H    0.84946998    0.00014038    0.99853043    0.07280000
opls_144-97    H    0.15010014    0.84952000    0.99893031    0.07280000
opls_144-98    H    0.48345991    0.33401007    0.00161953    0.09470000
opls_144-99    H    0.99987992    0.15022993    0.00111968    0.07290000
opls_144-100    H    0.18185991    0.48351016    0.00201941    0.08460000
opls_144-101    H    0.33386991    0.18211034    0.99928021    0.07790000
opls_144-102    H    0.15008995    0.99979990    0.50116038    0.10010000
opls_144-103    H    0.84965000    0.14997020    0.49968081    0.08470000
opls_144-104    H    0.51625018    0.66543999    0.49835976    0.07590000
opls_144-105    H    0.99939009    0.84982007    0.49701015    0.07280000
opls_144-106    H    0.81764007    0.51618003    0.49812983    0.08200000
opls_144-107    H    0.66547988    0.81779994    0.50088046    0.07800000
opls_702-108    H    0.77653979    0.99699035    0.87291114    0.12110000
opls_702-109    H    0.71018031    0.99640012    0.00059126    0.12670000
opls_702-110    H    0.77770030    0.99713010    0.12509087    0.12160000
opls_702-111    H    0.55827009    0.33706035    0.12732022    0.13070000
opls_702-112    H    0.55616020    0.33645034    0.87422076    0.12560000
opls_702-113    H    0.62440997    0.33684025    0.99547988    0.12360000
opls_702-114    H    0.99701002    0.22628033    0.12567070    0.12050000
opls_702-115    H    0.99693988    0.22460014    0.87353096    0.12370000
opls_702-116    H    0.99593023    0.29320014    0.99582121    0.12380000
opls_702-117    H    0.33641007    0.10562003    0.87364093    0.12390000
opls_702-118    H    0.33653008    0.03832025    0.99881034    0.12360000
opls_702-119    H    0.33693013    0.10540031    0.12683036    0.12730000
opls_702-120    H    0.22522011    0.77683020    0.87348098    0.12260000
opls_702-121    H    0.29300987    0.71010031    0.99981006    0.12670000
opls_702-122    H    0.22563995    0.77731021    0.12563071    0.12230000
opls_702-123    H    0.10426985    0.55868029    0.12743019    0.12130000
opls_702-124    H    0.10620004    0.55636021    0.87438072    0.12370000
opls_702-125    H    0.03789997    0.62471019    0.99419026    0.12070000
opls_702-126    H    0.22292008    0.00288008    0.62501018    0.12050000
opls_702-127    H    0.22156013    0.00189011    0.37283045    0.12430000
opls_702-128    H    0.28852003    0.00412994    0.49469083    0.14030000
opls_702-129    H    0.44210010    0.66261982    0.37340029    0.12410000
opls_702-130    H    0.37490993    0.66285997    0.49938089    0.12070000
opls_702-131    H    0.44241017    0.66284024    0.62658972    0.12730000
opls_702-132    H    0.00206998    0.77315980    0.37066965    0.12110000
opls_702-133    H    0.00313004    0.70684011    0.50310981    0.12710000
opls_702-134    H    0.00290996    0.77561003    0.62264086    0.12260000
opls_702-135    H    0.66289032    0.89508973    0.62712099    0.13070000
opls_702-136    H    0.66260998    0.89353007    0.37395013    0.12380000
opls_702-137    H    0.66264980    0.96162012    0.49709013    0.12070000
opls_702-138    H    0.77510018    0.22209008    0.62394049    0.12040000
opls_702-139    H    0.77501978    0.22214029    0.37171078    0.12350000
opls_702-140    H    0.70677023    0.28807984    0.49680021    0.12360000
opls_702-141    H    0.89393975    0.44226025    0.37334030    0.12460000
opls_702-142    H    0.96142019    0.37503997    0.49982077    0.12070000
opls_702-143    H    0.89446025    0.44253008    0.62652973    0.12460000
opls_702-144    H    0.27916001    0.99746006    0.87378946    0.12160000
opls_702-145    H    0.21281973    0.99576015    0.00262067    0.12380000
opls_702-146    H    0.28077012    0.99796017    0.12484951    0.12260000
opls_702-147    H    0.72583004    0.27608984    0.86882947    0.12090000
opls_702-148    H    0.79091009    0.21316011    0.01480999    0.12670000
opls_702-149    H    0.71842009    0.28393997    0.11868987    0.12500000
opls_702-150    H    0.99735981    0.71710995    0.11360991    0.12400000
opls_702-151    H    0.99647010    0.72941989    0.86569038    0.12050000
opls_702-152    H    0.99566003    0.79121999    0.02349033    0.12710000
opls_702-153    H    0.04739992    0.33481978    0.10916977    0.12050000
opls_702-154    H    0.06241983    0.33457981    0.86139020    0.12490000
opls_702-155    H    0.12135023    0.33550993    0.02792047    0.12960000
opls_702-156    H    0.33376984    0.60984981    0.87133017    0.12220000
opls_702-157    H    0.33527996    0.54251969    0.00442015    0.12710000
opls_702-158    H    0.33420996    0.61262987    0.12392977    0.12730000
opls_702-159    H    0.61289997    0.05289007    0.12365985    0.12730000
opls_702-160    H    0.60960007    0.05544013    0.87111024    0.12220000
opls_702-161    H    0.54251981    0.12160019    0.00514994    0.12720000
opls_702-162    H    0.71720990    0.00242990    0.62126983    0.12350000
opls_702-163    H    0.72135993    0.00228992    0.37060967    0.12050000
opls_702-164    H    0.78627015    0.00447986    0.50881959    0.12380000
opls_702-165    H    0.27828987    0.71943025    0.62489021    0.12160000
opls_702-166    H    0.27691000    0.71995970    0.37385015    0.12170000
opls_702-167    H    0.20848001    0.78686989    0.50167023    0.12960000
opls_702-168    H    0.00171027    0.27761999    0.37449997    0.12160000
opls_702-169    H    0.00388001    0.20873998    0.50052056    0.12370000
opls_702-170    H    0.00206030    0.27814003    0.62561000    0.12230000
opls_702-171    H    0.94234998    0.66550987    0.36877020    0.12340000
opls_702-172    H    0.87797998    0.66444999    0.50979073    0.12710000
opls_702-173    H    0.94824998    0.66579016    0.62089994    0.12380000
opls_702-174    H    0.66328980    0.37676028    0.57324090    0.12650000
opls_702-175    H    0.66410025    0.41480993    0.35385024    0.12410000
opls_702-176    H    0.66517027    0.45426985    0.57043029    0.12440000
opls_702-177    H    0.40862997    0.92566995    0.35466001    0.12400000
opls_702-178    H    0.45556978    0.87899014    0.55639008    0.12640000
opls_702-179    H    0.37813014    0.95750974    0.58650991    0.12640000
opls_146-180    H    0.41736009    0.20905995    0.99992002    0.10680000
opls_146-181    H    0.37307016    0.41747984    0.00007998    0.10680000
opls_146-182    H    0.20894018    0.37317015    0.99983005    0.10720000
opls_146-183    H    0.58205995    0.79069985    0.49964082    0.10470000
opls_146-184    H    0.62677982    0.58212007    0.49954085    0.10760000
opls_146-185    H    0.79065013    0.62674002    0.49981077    0.10700000
opls_146-186    H    0.95909038    0.91645982    0.99973008    0.10680000
opls_146-187    H    0.12419007    0.95914982    0.99978006    0.10740000
opls_146-188    H    0.91636010    0.12425989    0.00001000    0.10680000
opls_146-189    H    0.08325003    0.87556998    0.49979077    0.10680000
opls_146-190    H    0.87553010    0.04086035    0.49999072    0.10740000
opls_146-191    H    0.04081029    0.08329005    0.50005070    0.10750000
opls_750-192    N    0.80979009    0.10679989    0.00033990    -0.28500000
opls_750-193    N    0.08305031    0.80991961    0.00014996    -0.28230000
opls_750-194    N    0.10658007    0.08335030    0.99995001    -0.28060000
opls_750-195    N    0.24808019    0.52409030    0.99962011    -0.28140000
opls_750-196    N    0.22713012    0.24856973    0.00004999    -0.28490000
opls_750-197    N    0.52388025    0.22724005    0.99984005    -0.28060000
opls_750-198    N    0.19007013    0.89307993    0.49991074    -0.28060000
opls_750-199    N    0.91612006    0.19027004    0.50019066    -0.28220000
opls_750-200    N    0.89276012    0.91687976    0.50052056    -0.28810000
opls_750-201    N    0.75113986    0.47594010    0.50002071    -0.28160000
opls_750-202    N    0.77228014    0.75146020    0.50006070    -0.28490000
opls_750-203    N    0.47575009    0.77224981    0.50020066    -0.28420000
