#======================================================================
# Crystal Data Generated By AuToFF
#----------------------------------------------------------------------

data_AuToFF_phase_1

_cell_length_a                         18.3892
_cell_length_b                         18.3892
_cell_length_c                         9.1919
_cell_angle_alpha                      90.00
_cell_angle_beta                       90.00
_cell_angle_gamma                      120.00
_symmetry_space_group_name_H-M_alt     'P 1'
_symmetry_space_group_IT_number        1

loop_
_space_group_symop_operation_xyz
   'x, y, z'

loop_
   _atom_site_label
   _atom_site_type_symbol
   _atom_site_fract_x
   _atom_site_fract_y
   _atom_site_fract_z
   _atom_site_charge
opls_700-0    C    0.42072039    0.70086044    0.31068006    0.09290000
opls_145-1    C    0.38620016    0.75355012    0.31022966    -0.08130000
opls_700-2    C    0.51200017    0.73695034    0.30145998    0.11540000
opls_145-3    C    0.54569970    0.69630988    0.22414952    -0.14330000
opls_145-4    C    0.63216002    0.73276021    0.20606947    -0.13400000
opls_145-5    C    0.68664006    0.81253034    0.26487995    0.23210000
opls_145-6    C    0.65257021    0.85164054    0.35090025    -0.13380000
opls_145-7    C    0.56574019    0.81360032    0.36571003    -0.10440000
opls_142-8    C    0.82258003    0.92820010    0.21005015    0.03480000
opls_700-9    C    0.91274023    0.96393020    0.19300036    -0.10070000
opls_231-10    C    0.94903031    0.91282037    0.19358022    0.38990000
opls_700-11    C    0.29914005    0.71986015    0.31068006    0.09290000
opls_145-12    C    0.24644994    0.63265038    0.31022966    -0.08130000
opls_700-13    C    0.26304987    0.77505022    0.30145998    0.11540000
opls_145-14    C    0.30368977    0.84939007    0.22414952    -0.14330000
opls_145-15    C    0.26724038    0.89940040    0.20606947    -0.13400000
opls_145-16    C    0.18746999    0.87411015    0.26487995    0.23210000
opls_145-17    C    0.14836000    0.80093008    0.35090025    -0.13380000
opls_145-18    C    0.18640019    0.75214043    0.36571003    -0.10440000
opls_142-19    C    0.07180017    0.89438015    0.21005015    0.03480000
opls_700-20    C    0.03607021    0.94881043    0.19300036    -0.10070000
opls_231-21    C    0.08717970    0.03620983    0.19358022    0.38990000
opls_700-22    C    0.28013988    0.57928004    0.31068006    0.09290000
opls_145-23    C    0.36735022    0.61380012    0.31022966    -0.08130000
opls_700-24    C    0.22495027    0.48800007    0.30145998    0.11540000
opls_145-25    C    0.15060999    0.45430005    0.22414952    -0.14330000
opls_145-26    C    0.10059991    0.36784003    0.20606947    -0.13400000
opls_145-27    C    0.12589026    0.31336014    0.26487995    0.23210000
opls_145-28    C    0.19907010    0.34743000    0.35090025    -0.13380000
opls_145-29    C    0.24785993    0.43425988    0.36571003    -0.10440000
opls_142-30    C    0.10561980    0.17741975    0.21005015    0.03480000
opls_700-31    C    0.05118987    0.08726000    0.19300036    -0.10070000
opls_231-32    C    0.96378999    0.05096980    0.19358022    0.38990000
opls_700-33    C    0.57927992    0.29914018    0.68931994    0.09290000
opls_145-34    C    0.61379984    0.24644988    0.68977034    -0.08130000
opls_700-35    C    0.48800014    0.26305029    0.69854002    0.11540000
opls_145-36    C    0.45430030    0.30369012    0.77585048    -0.14330000
opls_145-37    C    0.36783998    0.26723979    0.79393053    -0.13400000
opls_145-38    C    0.31336025    0.18747029    0.73512005    0.23210000
opls_145-39    C    0.34743010    0.14836008    0.64909975    -0.13380000
opls_145-40    C    0.43426012    0.18640031    0.63428997    -0.10440000
opls_142-41    C    0.17741997    0.07179990    0.78994985    0.03480000
opls_700-42    C    0.08725977    0.03606980    0.80699964    -0.10080000
opls_231-43    C    0.05097000    0.08718025    0.80641978    0.38990000
opls_700-44    C    0.70085995    0.28013985    0.68931994    0.09290000
opls_145-45    C    0.75355038    0.36735024    0.68977034    -0.08130000
opls_700-46    C    0.73695013    0.22494978    0.69854002    0.11540000
opls_145-47    C    0.69631023    0.15060993    0.77585048    -0.14330000
opls_145-48    C    0.73275993    0.10060023    0.79393053    -0.13400000
opls_145-49    C    0.81253001    0.12588985    0.73512005    0.23210000
opls_145-50    C    0.85164000    0.19906992    0.64909975    -0.13380000
opls_145-51    C    0.81360012    0.24786019    0.63428997    -0.10440000
opls_142-52    C    0.92819983    0.10561985    0.78994985    0.03480000
opls_700-53    C    0.96393010    0.05119020    0.80699964    -0.10070000
opls_231-54    C    0.91282030    0.96379017    0.80641978    0.38970000
opls_700-55    C    0.71986012    0.42071996    0.68931994    0.09290000
opls_145-56    C    0.63264978    0.38619988    0.68977034    -0.08130000
opls_700-57    C    0.77504973    0.51199993    0.69854002    0.11540000
opls_145-58    C    0.84939001    0.54569995    0.77585048    -0.14330000
opls_145-59    C    0.89940009    0.63215997    0.79393053    -0.13410000
opls_145-60    C    0.87411006    0.68664049    0.73512005    0.23210000
opls_145-61    C    0.80092990    0.65257000    0.64909975    -0.13380000
opls_145-62    C    0.75214007    0.56574012    0.63428997    -0.10440000
opls_142-63    C    0.89438020    0.82258025    0.78994985    0.03470000
opls_700-64    C    0.94881013    0.91274000    0.80699964    -0.10070000
opls_231-65    C    0.03621001    0.94903020    0.80641978    0.38990000
opls_750-66    N    0.77486033    0.84969021    0.23984051    -0.23970000
opls_750-67    N    0.15031005    0.92517037    0.23984051    -0.23980000
opls_750-68    N    0.07482993    0.22514004    0.23984051    -0.23970000
opls_750-69    N    0.22513967    0.15030979    0.76015949    -0.23970000
opls_750-70    N    0.84969027    0.07483026    0.76015949    -0.23970000
opls_750-71    N    0.92517007    0.77485996    0.76015949    -0.23970000
opls_272-72    O    0.82789002    0.93610001    0.81291028    -0.20670000
opls_272-73    O    0.06390012    0.89178996    0.81291028    -0.20670000
opls_272-74    O    0.10820987    0.17211003    0.81291028    -0.20670000
opls_272-75    O    0.17210998    0.06389999    0.18708972    -0.20670000
opls_272-76    O    0.93609988    0.10821004    0.18708972    -0.20670000
opls_272-77    O    0.89179013    0.82788997    0.18708972    -0.20670000
opls_146-78    H    0.42914017    0.82462037    0.30948988    0.04990000
opls_146-79    H    0.50256008    0.63205009    0.17415007    0.04990000
opls_146-80    H    0.65895017    0.69792993    0.14346000    0.04990000
opls_146-81    H    0.69596035    0.91373024    0.40745983    0.04990000
opls_146-82    H    0.53727047    0.84558046    0.43203037    0.04990000
opls_144-83    H    0.79422012    0.97055039    0.19673952    0.02940000
opls_146-84    H    0.17538011    0.60452004    0.30948988    0.04990000
opls_146-85    H    0.36794987    0.87051027    0.17415007    0.04990000
opls_146-86    H    0.30207014    0.96102040    0.14346000    0.04990000
opls_146-87    H    0.08627044    0.78222048    0.40745983    0.04990000
opls_146-88    H    0.15442014    0.69168020    0.43203037    0.04990000
opls_144-89    H    0.02945039    0.82367033    0.19673952    0.02940000
opls_146-90    H    0.39548003    0.57086021    0.30948988    0.04990000
opls_146-91    H    0.12949037    0.49744027    0.17415007    0.04990000
opls_146-92    H    0.03898001    0.34105030    0.14346000    0.04990000
opls_146-93    H    0.21777973    0.30403987    0.40745983    0.04990000
opls_146-94    H    0.30831991    0.46272992    0.43203037    0.04990000
opls_144-95    H    0.17632980    0.20577991    0.19673952    0.02940000
opls_146-96    H    0.57086014    0.17538025    0.69051012    0.04990000
opls_146-97    H    0.49743992    0.36794991    0.82584993    0.04990000
opls_146-98    H    0.34104983    0.30207007    0.85654000    0.04990000
opls_146-99    H    0.30403965    0.08626976    0.59254017    0.04990000
opls_146-100    H    0.46272985    0.15442017    0.56796963    0.04990000
opls_144-101    H    0.20578019    0.02945023    0.80326048    0.02940000
opls_146-102    H    0.82461989    0.39547996    0.69051012    0.04990000
opls_146-103    H    0.63205013    0.12948973    0.82584993    0.04990000
opls_146-104    H    0.69793018    0.03898023    0.85654000    0.04990000
opls_146-105    H    0.91372987    0.21778015    0.59254017    0.04990000
opls_146-106    H    0.84557986    0.30831980    0.56796963    0.04990000
opls_144-107    H    0.97054992    0.17633030    0.80326048    0.02940000
opls_146-108    H    0.60452029    0.42914042    0.69051012    0.04990000
opls_146-109    H    0.87050994    0.50256036    0.82584993    0.04990000
opls_146-110    H    0.96102031    0.65895033    0.85654000    0.04990000
opls_146-111    H    0.78222027    0.69596013    0.59254017    0.04990000
opls_146-112    H    0.69168009    0.53727008    0.56796963    0.04990000
opls_144-113    H    0.82367020    0.79422009    0.80326048    0.02940000
