#======================================================================
# Crystal Data Generated By AuToFF
#----------------------------------------------------------------------

data_AuToFF_phase_1

_cell_length_a                         45.6000
_cell_length_b                         45.6000
_cell_length_c                         3.7100
_cell_angle_alpha                      90.00
_cell_angle_beta                       90.00
_cell_angle_gamma                      90.00
_symmetry_space_group_name_H-M_alt     'P 1'
_symmetry_space_group_IT_number        1

loop_
_space_group_symop_operation_xyz
   'x, y, z'

loop_
   _atom_site_label
   _atom_site_type_symbol
   _atom_site_fract_x
   _atom_site_fract_y
   _atom_site_fract_z
   _atom_site_charge
opls_543-0    C    0.01983004    0.55901996    0.35381941    0.23250000
opls_700-1    C    0.04773004    0.55420000    0.51397035    -0.05640000
opls_543-2    C    0.05601996    0.52701996    0.67112938    0.23250000
opls_716-3    C    0.08456996    0.52038004    0.76816981    -0.16720000
opls_261-4    C    0.14706996    0.34245000    0.56908086    0.27650000
opls_916-5    C    0.11008004    0.62538991    0.53336119    0.21880000
opls_700-6    C    0.06933991    0.57890000    0.51832884    0.07990000
opls_231-7    C    0.20058991    0.33036996    0.45015903    0.36510000
opls_700-8    C    0.21721996    0.28028991    0.52945013    0.14280000
opls_145-9    C    0.18896996    0.27188004    0.63077089    -0.09910000
opls_145-10    C    0.16648004    0.29265000    0.64225876    -0.10090000
opls_700-11    C    0.17195000    0.32193991    0.55235040    -0.03740000
opls_261-12    C    0.24030000    0.25896009    0.51630997    -0.08330000
opls_543-13    C    0.97298004    0.55601996    0.35018059    0.23250000
opls_716-14    C    0.08650000    0.49028991    0.76556873    -0.16540000
opls_543-15    C    0.05901996    0.48016996    0.66749057    0.23250000
opls_700-16    C    0.05420000    0.45226996    0.50733962    -0.05640000
opls_716-17    C    0.99028991    0.41350000    0.25574933    -0.16540000
opls_700-18    C    0.07890000    0.43066009    0.50298113    0.07990000
opls_145-19    C    0.06145000    0.60648004    0.65598113    -0.08070000
opls_145-20    C    0.77701009    0.69053991    0.43977089    -0.20140000
opls_716-21    C    0.58456996    0.02038004    0.25314016    -0.16720000
opls_145-22    C    0.40211009    0.11818991    0.39553908    -0.14510000
opls_145-23    C    0.37046996    0.08158991    0.66194879    -0.12020000
opls_145-24    C    0.57495000    0.90206996    0.38691105    -0.08070000
opls_145-25    C    0.61008004    0.12538991    0.48794879    0.22180000
opls_231-26    C    0.70058004    0.83036009    0.57116981    0.36200000
opls_145-27    C    0.72298991    0.80946009    0.58154987    -0.20140000
opls_700-28    C    0.71721996    0.78028991    0.49187062    0.14280000
opls_145-29    C    0.68896009    0.77188004    0.39056873    -0.09910000
opls_145-30    C    0.66648004    0.79265000    0.37908086    -0.10090000
opls_700-31    C    0.67195000    0.82193991    0.46898922    -0.03770000
opls_142-32    C    0.35293991    0.15755000    0.45225876    0.05030000
opls_261-33    C    0.74030000    0.75896009    0.50501078    -0.08330000
opls_145-34    C    0.10648004    0.43855000    0.36532884    -0.08070000
opls_145-35    C    0.12953004    0.41841009    0.35936119    -0.12020000
opls_145-36    C    0.09790000    0.38181009    0.62577089    -0.14510000
opls_145-37    C    0.07495000    0.40206996    0.63439892    -0.08070000
opls_543-38    C    0.98016996    0.44098004    0.35381941    0.23250000
opls_700-39    C    0.95226996    0.44580000    0.51397035    -0.05640000
opls_543-40    C    0.94398004    0.47298004    0.67112938    0.23250000
opls_716-41    C    0.91543004    0.47961996    0.76816981    -0.16720000
opls_261-42    C    0.85293004    0.65755000    0.56908086    0.27650000
opls_916-43    C    0.88991996    0.37461009    0.53336119    0.21880000
opls_700-44    C    0.93066009    0.42110000    0.51832884    0.07990000
opls_231-45    C    0.79941009    0.66963004    0.45015903    0.36510000
opls_700-46    C    0.78278004    0.71971009    0.52945013    0.14280000
opls_145-47    C    0.81103004    0.72811996    0.63077089    -0.09910000
opls_145-48    C    0.83351996    0.70735000    0.64225876    -0.10090000
opls_700-49    C    0.82805000    0.67806009    0.55235040    -0.03740000
opls_261-50    C    0.75970000    0.74103991    0.51630997    -0.08330000
opls_543-51    C    0.02701996    0.44398004    0.35018059    0.23250000
opls_716-52    C    0.91350000    0.50971009    0.76556873    -0.16540000
opls_543-53    C    0.94098004    0.51983004    0.66749057    0.23250000
opls_700-54    C    0.94580000    0.54773004    0.50733962    -0.05640000
opls_716-55    C    0.00971009    0.58650000    0.25574933    -0.16540000
opls_700-56    C    0.92110000    0.56933991    0.50298113    0.07990000
opls_145-57    C    0.93855000    0.39351996    0.65598113    -0.08070000
opls_145-58    C    0.22298991    0.30946009    0.43977089    -0.20140000
opls_716-59    C    0.41543004    0.97961996    0.25314016    -0.16720000
opls_145-60    C    0.59788991    0.88181009    0.39553908    -0.14510000
opls_145-61    C    0.62953004    0.91841009    0.66194879    -0.12020000
opls_145-62    C    0.42505000    0.09793004    0.38691105    -0.08070000
opls_145-63    C    0.38991996    0.87461009    0.48794879    0.22180000
opls_231-64    C    0.29941996    0.16963991    0.57116981    0.36200000
opls_145-65    C    0.27701009    0.19053991    0.58154987    -0.20140000
opls_700-66    C    0.28278004    0.21971009    0.49187062    0.14280000
opls_145-67    C    0.31103991    0.22811996    0.39056873    -0.09910000
opls_145-68    C    0.33351996    0.20735000    0.37908086    -0.10090000
opls_700-69    C    0.32805000    0.17806009    0.46898922    -0.03770000
opls_142-70    C    0.64706009    0.84245000    0.45225876    0.05030000
opls_261-71    C    0.25970000    0.24103991    0.50501078    -0.08330000
opls_145-72    C    0.89351996    0.56145000    0.36532884    -0.08070000
opls_145-73    C    0.87046996    0.58158991    0.35936119    -0.12020000
opls_145-74    C    0.90210000    0.61818991    0.62577089    -0.14510000
opls_145-75    C    0.92505000    0.59793004    0.63439892    -0.08070000
opls_543-76    C    0.44098004    0.01983004    0.35381941    0.23250000
opls_700-77    C    0.44580000    0.04773004    0.51397035    -0.05640000
opls_543-78    C    0.47298004    0.05601996    0.67112938    0.23250000
opls_716-79    C    0.47961996    0.08456996    0.76816981    -0.16720000
opls_261-80    C    0.65755000    0.14706996    0.56908086    0.27650000
opls_916-81    C    0.37461009    0.11008004    0.53336119    0.21880000
opls_700-82    C    0.42110000    0.06933991    0.51832884    0.07990000
opls_231-83    C    0.66963004    0.20058991    0.45015903    0.36510000
opls_700-84    C    0.71971009    0.21721996    0.52945013    0.14280000
opls_145-85    C    0.72811996    0.18896996    0.63077089    -0.09910000
opls_145-86    C    0.70735000    0.16648004    0.64225876    -0.10090000
opls_700-87    C    0.67806009    0.17195000    0.55235040    -0.03740000
opls_261-88    C    0.74103991    0.24030000    0.51630997    -0.08330000
opls_543-89    C    0.44398004    0.97298004    0.35018059    0.23250000
opls_716-90    C    0.50971009    0.08650000    0.76556873    -0.16540000
opls_543-91    C    0.51983004    0.05901996    0.66749057    0.23250000
opls_700-92    C    0.54773004    0.05420000    0.50733962    -0.05640000
opls_716-93    C    0.58650000    0.99028991    0.25574933    -0.16540000
opls_700-94    C    0.56933991    0.07890000    0.50298113    0.07990000
opls_145-95    C    0.39351996    0.06145000    0.65598113    -0.08070000
opls_145-96    C    0.30946009    0.77701009    0.43977089    -0.20140000
opls_716-97    C    0.97961996    0.58456996    0.25314016    -0.16720000
opls_145-98    C    0.88181009    0.40211009    0.39553908    -0.14510000
opls_145-99    C    0.91841009    0.37046996    0.66194879    -0.12020000
opls_145-100    C    0.09793004    0.57495000    0.38691105    -0.08080000
opls_145-101    C    0.87461009    0.61008004    0.48794879    0.22180000
opls_231-102    C    0.16963991    0.70058004    0.57116981    0.36200000
opls_145-103    C    0.19053991    0.72298991    0.58154987    -0.20140000
opls_700-104    C    0.21971009    0.71721996    0.49187062    0.14280000
opls_145-105    C    0.22811996    0.68896009    0.39056873    -0.09910000
opls_145-106    C    0.20735000    0.66648004    0.37908086    -0.10090000
opls_700-107    C    0.17806009    0.67195000    0.46898922    -0.03770000
opls_142-108    C    0.84245000    0.35293991    0.45225876    0.05030000
opls_261-109    C    0.24103991    0.74030000    0.50501078    -0.08330000
opls_145-110    C    0.56145000    0.10648004    0.36532884    -0.08070000
opls_145-111    C    0.58158991    0.12953004    0.35936119    -0.12020000
opls_145-112    C    0.61818991    0.09790000    0.62577089    -0.14510000
opls_145-113    C    0.59793004    0.07495000    0.63439892    -0.08070000
opls_543-114    C    0.55901996    0.98016996    0.35381941    0.23250000
opls_700-115    C    0.55420000    0.95226996    0.51397035    -0.05640000
opls_543-116    C    0.52701996    0.94398004    0.67112938    0.23250000
opls_716-117    C    0.52038004    0.91543004    0.76816981    -0.16720000
opls_261-118    C    0.34245000    0.85293004    0.56908086    0.27650000
opls_916-119    C    0.62538991    0.88991996    0.53336119    0.21880000
opls_700-120    C    0.57890000    0.93066009    0.51832884    0.07990000
opls_231-121    C    0.33036996    0.79941009    0.45015903    0.36510000
opls_700-122    C    0.28028991    0.78278004    0.52945013    0.14280000
opls_145-123    C    0.27188004    0.81103004    0.63077089    -0.09910000
opls_145-124    C    0.29265000    0.83351996    0.64225876    -0.10090000
opls_700-125    C    0.32193991    0.82805000    0.55235040    -0.03740000
opls_261-126    C    0.25896009    0.75970000    0.51630997    -0.08330000
opls_543-127    C    0.55601996    0.02701996    0.35018059    0.23250000
opls_716-128    C    0.49028991    0.91350000    0.76556873    -0.16550000
opls_543-129    C    0.48016996    0.94098004    0.66749057    0.23240000
opls_700-130    C    0.45226996    0.94580000    0.50733962    -0.05640000
opls_716-131    C    0.41350000    0.00971009    0.25574933    -0.16540000
opls_700-132    C    0.43066009    0.92110000    0.50298113    0.07990000
opls_145-133    C    0.60648004    0.93855000    0.65598113    -0.08070000
opls_145-134    C    0.69053991    0.22298991    0.43977089    -0.20140000
opls_716-135    C    0.02038004    0.41543004    0.25314016    -0.16720000
opls_145-136    C    0.11818991    0.59788991    0.39553908    -0.14510000
opls_145-137    C    0.08158991    0.62953004    0.66194879    -0.12020000
opls_145-138    C    0.90206996    0.42505000    0.38691105    -0.08070000
opls_145-139    C    0.12538991    0.38991996    0.48794879    0.22180000
opls_231-140    C    0.83036009    0.29941996    0.57116981    0.36200000
opls_145-141    C    0.80946009    0.27701009    0.58154987    -0.20150000
opls_700-142    C    0.78028991    0.28278004    0.49187062    0.14280000
opls_145-143    C    0.77188004    0.31103991    0.39056873    -0.09910000
opls_145-144    C    0.79265000    0.33351996    0.37908086    -0.10090000
opls_700-145    C    0.82193991    0.32805000    0.46898922    -0.03770000
opls_142-146    C    0.15755000    0.64706009    0.45225876    0.05030000
opls_261-147    C    0.75896009    0.25970000    0.50501078    -0.08330000
opls_145-148    C    0.43855000    0.89351996    0.36532884    -0.08070000
opls_145-149    C    0.41841009    0.87046996    0.35936119    -0.12020000
opls_145-150    C    0.38181009    0.90210000    0.62577089    -0.14510000
opls_145-151    C    0.40206996    0.92505000    0.63439892    -0.08070000
opls_542-152    N    0.99755000    0.53958004    0.35063073    -0.34300000
opls_542-153    N    0.03958004    0.50245000    0.67069003    -0.34310000
opls_750-154    N    0.85065000    0.63031996    0.47377898    -0.29650000
opls_238-155    N    0.64935000    0.86968004    0.54753908    -0.19510000
opls_542-156    N    0.00245000    0.46041996    0.35063073    -0.34300000
opls_542-157    N    0.96041996    0.49755000    0.67069003    -0.34300000
opls_750-158    N    0.14935000    0.36968004    0.47377898    -0.29650000
opls_238-159    N    0.35065000    0.13031996    0.54753908    -0.19510000
opls_542-160    N    0.46041996    0.99755000    0.35063073    -0.34300000
opls_542-161    N    0.49755000    0.03958004    0.67069003    -0.34310000
opls_750-162    N    0.36968004    0.85065000    0.47377898    -0.29650000
opls_238-163    N    0.13031996    0.64935000    0.54753908    -0.19510000
opls_542-164    N    0.53958004    0.00245000    0.35063073    -0.34300000
opls_542-165    N    0.50245000    0.96041996    0.67069003    -0.34300000
opls_750-166    N    0.63031996    0.14935000    0.47377898    -0.29650000
opls_238-167    N    0.86968004    0.35065000    0.54753908    -0.19510000
opls_272-168    O    0.20703991    0.35873991    0.36025067    -0.26190000
opls_272-169    O    0.70703991    0.85873004    0.66108086    -0.26420000
opls_272-170    O    0.79296009    0.64126009    0.36025067    -0.26190000
opls_272-171    O    0.29296009    0.14126996    0.66108086    -0.26420000
opls_272-172    O    0.64126009    0.20703991    0.36025067    -0.26190000
opls_272-173    O    0.14126996    0.70703991    0.66108086    -0.26420000
opls_272-174    O    0.35873991    0.79296009    0.36025067    -0.26190000
opls_272-175    O    0.85873004    0.29296009    0.66108086    -0.26420000
opls_547-176    H    0.10075000    0.53876996    0.83000000    0.04640000
opls_146-177    H    0.18426009    0.24806009    0.70412129    0.04700000
opls_146-178    H    0.14341009    0.28580000    0.72546900    0.04700000
opls_547-179    H    0.10810000    0.47911009    0.83676011    0.04700000
opls_547-180    H    0.97405000    0.39510000    0.19716981    0.04700000
opls_146-181    H    0.03836996    0.61025000    0.76454987    0.04700000
opls_146-182    H    0.75388004    0.68381009    0.35773046    0.04700000
opls_547-183    H    0.60075000    0.03876996    0.19130997    0.04640000
opls_146-184    H    0.40576996    0.14138991    0.29018059    0.04700000
opls_146-185    H    0.34818991    0.07468991    0.77245013    0.04700000
opls_146-186    H    0.55283004    0.89518004    0.27153908    0.04700000
opls_910-187    H    0.67118004    0.87708991    0.64370081    0.27260000
opls_146-188    H    0.74611996    0.81620000    0.66356065    0.04700000
opls_146-189    H    0.68425000    0.74806009    0.31728032    0.04700000
opls_146-190    H    0.64341009    0.78580000    0.29584906    0.04700000
opls_144-191    H    0.37481996    0.16640000    0.35100000    0.02770000
opls_146-192    H    0.11025000    0.46163004    0.25674933    0.04700000
opls_146-193    H    0.15186009    0.42518004    0.24916981    0.04700000
opls_146-194    H    0.09433991    0.35858991    0.73090027    0.04700000
opls_146-195    H    0.05271996    0.39546009    0.74905121    0.04700000
opls_547-196    H    0.89925000    0.46123004    0.83000000    0.04640000
opls_146-197    H    0.81573991    0.75193991    0.70412129    0.04700000
opls_146-198    H    0.85658991    0.71420000    0.72546900    0.04700000
opls_547-199    H    0.89190000    0.52088991    0.83676011    0.04700000
opls_547-200    H    0.02595000    0.60490000    0.19716981    0.04700000
opls_146-201    H    0.96163004    0.38975000    0.76454987    0.04700000
opls_146-202    H    0.24611996    0.31618991    0.35773046    0.04700000
opls_547-203    H    0.39925000    0.96123004    0.19130997    0.04640000
opls_146-204    H    0.59423004    0.85861009    0.29018059    0.04700000
opls_146-205    H    0.65181009    0.92531009    0.77245013    0.04700000
opls_146-206    H    0.44716996    0.10481996    0.27153908    0.04700000
opls_910-207    H    0.32881996    0.12291009    0.64370081    0.27260000
opls_146-208    H    0.25388004    0.18380000    0.66356065    0.04700000
opls_146-209    H    0.31576009    0.25193991    0.31728032    0.04640000
opls_146-210    H    0.35658991    0.21420000    0.29584906    0.04700000
opls_144-211    H    0.62518004    0.83360000    0.35100000    0.02770000
opls_146-212    H    0.88975000    0.53836996    0.25674933    0.04700000
opls_146-213    H    0.84813991    0.57481996    0.24916981    0.04700000
opls_146-214    H    0.90566009    0.64141009    0.73090027    0.04700000
opls_146-215    H    0.94728004    0.60453991    0.74905121    0.04700000
opls_547-216    H    0.46123004    0.10075000    0.83000000    0.04640000
opls_146-217    H    0.75193991    0.18426009    0.70412129    0.04700000
opls_146-218    H    0.71420000    0.14341009    0.72546900    0.04700000
opls_547-219    H    0.52088991    0.10810000    0.83676011    0.04700000
opls_547-220    H    0.60490000    0.97405000    0.19716981    0.04700000
opls_146-221    H    0.38975000    0.03836996    0.76454987    0.04700000
opls_146-222    H    0.31618991    0.75388004    0.35773046    0.04700000
opls_547-223    H    0.96123004    0.60075000    0.19130997    0.04640000
opls_146-224    H    0.85861009    0.40576996    0.29018059    0.04700000
opls_146-225    H    0.92531009    0.34818991    0.77245013    0.04700000
opls_146-226    H    0.10481996    0.55283004    0.27153908    0.04700000
opls_910-227    H    0.12291009    0.67118004    0.64370081    0.27260000
opls_146-228    H    0.18380000    0.74611996    0.66356065    0.04700000
opls_146-229    H    0.25193991    0.68425000    0.31728032    0.04700000
opls_146-230    H    0.21420000    0.64341009    0.29584906    0.04700000
opls_144-231    H    0.83360000    0.37481996    0.35100000    0.02770000
opls_146-232    H    0.53836996    0.11025000    0.25674933    0.04700000
opls_146-233    H    0.57481996    0.15186009    0.24916981    0.04700000
opls_146-234    H    0.64141009    0.09433991    0.73090027    0.04700000
opls_146-235    H    0.60453991    0.05271996    0.74905121    0.04700000
opls_547-236    H    0.53876996    0.89925000    0.83000000    0.04640000
opls_146-237    H    0.24806009    0.81573991    0.70412129    0.04700000
opls_146-238    H    0.28580000    0.85658991    0.72546900    0.04700000
opls_547-239    H    0.47911009    0.89190000    0.83676011    0.04700000
opls_547-240    H    0.39510000    0.02595000    0.19716981    0.04700000
opls_146-241    H    0.61025000    0.96163004    0.76454987    0.04700000
opls_146-242    H    0.68381009    0.24611996    0.35773046    0.04700000
opls_547-243    H    0.03876996    0.39925000    0.19130997    0.04640000
opls_146-244    H    0.14138991    0.59423004    0.29018059    0.04700000
opls_146-245    H    0.07468991    0.65181009    0.77245013    0.04700000
opls_146-246    H    0.89518004    0.44716996    0.27153908    0.04700000
opls_910-247    H    0.87708991    0.32881996    0.64370081    0.27260000
opls_146-248    H    0.81620000    0.25388004    0.66356065    0.04700000
opls_146-249    H    0.74806009    0.31576009    0.31728032    0.04640000
opls_146-250    H    0.78580000    0.35658991    0.29584906    0.04700000
opls_144-251    H    0.16640000    0.62518004    0.35100000    0.02770000
opls_146-252    H    0.46163004    0.88975000    0.25674933    0.04700000
opls_146-253    H    0.42518991    0.84813991    0.24916981    0.04700000
opls_146-254    H    0.35858991    0.90566009    0.73090027    0.04700000
opls_146-255    H    0.39546009    0.94728004    0.74905121    0.04700000
Cu2+-256    Cu    0.00000000    0.50000000    0.51060108    0.73010000
Cu2+-257    Cu    0.50000000    0.00000000    0.51060108    0.73010000
