#======================================================================
# Crystal Data Generated By AuToFF
#----------------------------------------------------------------------

data_AuToFF_phase_1

_cell_length_a                         29.3041
_cell_length_b                         29.7062
_cell_length_c                         6.5211
_cell_angle_alpha                      90.29
_cell_angle_beta                       90.81
_cell_angle_gamma                      60.49
_symmetry_space_group_name_H-M_alt     'P 1'
_symmetry_space_group_IT_number        1

loop_
_space_group_symop_operation_xyz
   'x, y, z'

loop_
   _atom_site_label
   _atom_site_type_symbol
   _atom_site_fract_x
   _atom_site_fract_y
   _atom_site_fract_z
   _atom_site_charge
opls_700-0    C    0.02842998    0.03226984    0.01948028    0.07840000
opls_700-1    C    0.97325998    0.05929011    0.04674071    0.00060000
opls_700-2    C    0.94469000    0.03202016    0.04772991    0.07840000
opls_700-3    C    0.97224019    0.97738999    0.03383054    0.00160000
opls_700-4    C    0.02796987    0.94966015    0.03185061    0.07840000
opls_700-5    C    0.05547020    0.97755011    0.01552043    0.00070000
opls_142-6    C    0.11253020    0.95157014    0.00407028    0.07520000
opls_142-7    C    0.94282010    0.11506001    0.06244977    0.06360000
opls_142-8    C    0.94605980    0.94670033    0.02447994    0.07810000
opls_145-9    C    0.92183011    0.20021007    0.01300066    0.15480000
opls_916-10    C    0.94262017    0.23442989    0.00003067    0.17550000
opls_145-11    C    0.86713997    0.22101004    0.99929913    -0.16440000
opls_145-12    C    0.90809995    0.28753006    0.98051972    -0.22300000
opls_145-13    C    0.83365992    0.27365013    0.98010870    -0.11730000
opls_700-14    C    0.85353995    0.30828008    0.97205863    0.06430000
opls_145-15    C    0.19574011    0.88624001    0.92587003    0.15900000
opls_916-16    C    0.22873035    0.83236992    0.95818994    0.15830000
opls_145-17    C    0.21807023    0.91680999    0.87170958    -0.16810000
opls_145-18    C    0.28304993    0.81183020    0.94853875    -0.23890000
opls_145-19    C    0.27194025    0.89543997    0.85659863    -0.12630000
opls_700-20    C    0.30554010    0.84259021    0.90002975    0.06560000
opls_145-21    C    0.88026006    0.92653026    0.97031949    0.15280000
opls_916-22    C    0.82567010    0.94574028    0.99658919    0.16830000
opls_145-23    C    0.91280011    0.87347026    0.93273000    -0.17010000
opls_145-24    C    0.80683010    0.91064029    0.99963959    -0.22920000
opls_145-25    C    0.89312006    0.83968019    0.92806927    -0.11900000
opls_700-26    C    0.83970030    0.85755007    0.96652987    0.07330000
opls_700-27    C    0.81815001    0.36466020    0.95944906    0.06160000
opls_145-28    C    0.83829991    0.39910017    0.96397942    -0.11790000
opls_145-29    C    0.76348024    0.38578000    0.94733944    -0.22040000
opls_145-30    C    0.80490999    0.45196016    0.96789941    -0.16890000
opls_916-31    C    0.72913016    0.43914011    0.94910006    0.17570000
opls_145-32    C    0.75031020    0.47283990    0.96651913    0.16050000
opls_700-33    C    0.36293006    0.82033014    0.90180877    0.07160000
opls_145-34    C    0.38506007    0.85242992    0.93058904    -0.23760000
opls_145-35    C    0.45064008    0.74616994    0.90297894    -0.17030000
opls_916-36    C    0.43930018    0.83260007    0.94425990    0.17610000
opls_145-37    C    0.47271996    0.77807022    0.94111900    0.16290000
opls_700-38    C    0.81917015    0.82126023    0.97404930    0.07060000
opls_145-39    C    0.76480007    0.83927027    0.96237984    -0.11900000
opls_145-40    C    0.85316006    0.76802024    0.99978989    -0.22040000
opls_145-41    C    0.74578020    0.80517013    0.98017925    -0.16660000
opls_916-42    C    0.83461987    0.73285014    0.01402053    0.16830000
opls_145-43    C    0.77968980    0.75185025    0.00557018    0.16330000
opls_700-44    C    0.64098005    0.63739020    0.09053990    0.07970000
opls_700-45    C    0.61199980    0.69195024    0.06944930    0.00150000
opls_700-46    C    0.63827992    0.72068012    0.04619934    0.07920000
opls_142-47    C    0.55503009    0.71620029    0.05912024    0.06930000
opls_700-48    C    0.69308982    0.69432022    0.01731018    -0.00710000
opls_142-49    C    0.71705998    0.72613021    0.97284999    0.06980000
opls_700-50    C    0.72209020    0.63986001    0.02146941    0.07260000
opls_700-51    C    0.69561004    0.61213008    0.06294974    -0.00170000
opls_142-52    C    0.72776005    0.55567002    0.06869015    0.07110000
opls_148-53    C    0.88592006    0.05977002    0.05797001    -0.44890000
opls_148-54    C    0.05745993    0.06153001    0.98895933    -0.44810000
opls_148-55    C    0.05696022    0.89174009    0.04970984    -0.44810000
opls_148-56    C    0.60970992    0.77877003    0.06788959    -0.43340000
opls_148-57    C    0.77949996    0.61038019    0.96973977    -0.43290000
opls_148-58    C    0.61344984    0.60748024    0.14299955    -0.43040000
opls_145-59    C    0.39689997    0.76668008    0.88068903    -0.12630000
opls_700-60    C    0.97222001    0.96445001    0.53596997    0.07850000
opls_700-61    C    0.02767011    0.93816010    0.52840913    0.00170000
opls_700-62    C    0.05547002    0.96574029    0.50976008    0.07910000
opls_700-63    C    0.02762019    0.02021983    0.51883002    -0.00230000
opls_700-64    C    0.97260996    0.04706995    0.54525001    0.08020000
opls_700-65    C    0.94470023    0.01937991    0.54407985    0.00030000
opls_142-66    C    0.88774991    0.04618009    0.55005030    0.06880000
opls_142-67    C    0.05995011    0.88212005    0.53940992    0.07080000
opls_142-68    C    0.05191000    0.05243009    0.49210943    0.06930000
opls_145-69    C    0.08292015    0.79666027    0.48812964    0.15870000
opls_916-70    C    0.06600018    0.76054011    0.53403911    0.15880000
opls_145-71    C    0.13468017    0.77857020    0.42416923    -0.17030000
opls_145-72    C    0.10212011    0.70780993    0.52088969    -0.23720000
opls_145-73    C    0.16969013    0.72603030    0.40740962    -0.12660000
opls_700-74    C    0.15380998    0.68978017    0.45699983    0.07240000
opls_145-75    C    0.80398003    0.11401007    0.49045923    0.15030000
opls_916-76    C    0.77100014    0.16779999    0.52730030    0.15390000
opls_145-77    C    0.78134001    0.08412012    0.42572894    -0.17010000
opls_145-78    C    0.71658996    0.18869011    0.50841968    -0.24140000
opls_145-79    C    0.72759986    0.10567013    0.40391906    -0.11840000
opls_700-80    C    0.69416030    0.15830981    0.44933011    0.07040000
opls_145-81    C    0.11502988    0.07728012    0.51104987    0.14950000
opls_916-82    C    0.16653013    0.06150001    0.44129997    0.15040000
opls_145-83    C    0.08307015    0.12873012    0.57380944    -0.16780000
opls_145-84    C    0.18384024    0.09782991    0.43851028    -0.25410000
opls_145-85    C    0.10099017    0.16414001    0.57136021    -0.12760000
opls_700-86    C    0.15198986    0.14898010    0.50428039    0.06890000
opls_700-87    C    0.18993993    0.63378018    0.44189963    0.07240000
opls_145-88    C    0.17008984    0.59991024    0.40312924    -0.11790000
opls_145-89    C    0.24424021    0.61298008    0.46758041    -0.23690000
opls_145-90    C    0.20341000    0.54697024    0.40642963    -0.17010000
opls_916-91    C    0.27876993    0.55953021    0.46365889    0.16220000
opls_145-92    C    0.25743015    0.52588017    0.44360043    0.15250000
opls_700-93    C    0.63684992    0.18019997    0.44266031    0.07050000
opls_145-94    C    0.61569029    0.14756985    0.47484986    -0.20930000
opls_145-95    C    0.54849004    0.25299006    0.42323984    -0.16900000
opls_916-96    C    0.56167022    0.16647991    0.48311004    0.17560000
opls_145-97    C    0.52738998    0.22058991    0.46455914    0.15970000
opls_700-98    C    0.17263013    0.18530000    0.51235960    0.06590000
opls_145-99    C    0.22575001    0.16721019    0.56383925    -0.12630000
opls_145-100    C    0.13984002    0.23840994    0.47799995    -0.23420000
opls_145-101    C    0.24505998    0.20136990    0.57537988    -0.17080000
opls_916-102    C    0.15877999    0.27347993    0.48928907    0.14560000
opls_145-103    C    0.21286012    0.25439994    0.53480900    0.14830000
opls_700-104    C    0.35926014    0.36160019    0.58600033    0.07870000
opls_700-105    C    0.38720999    0.30692987    0.56975910    0.00070000
opls_700-106    C    0.35979017    0.27899008    0.55145972    0.07840000
opls_142-107    C    0.44427012    0.28214986    0.56473029    0.06930000
opls_700-108    C    0.30464000    0.30616004    0.52369012    0.00330000
opls_142-109    C    0.27874987    0.27510020    0.49967947    0.07110000
opls_700-110    C    0.27701004    0.36086020    0.51268933    0.07840000
opls_700-111    C    0.30464015    0.38805020    0.54815933    0.00100000
opls_142-112    C    0.27457021    0.44469000    0.54116900    0.07020000
opls_148-113    C    0.11304989    0.93689032    0.46509898    -0.44820000
opls_148-114    C    0.94419023    0.93366003    0.53201931    -0.44640000
opls_148-115    C    0.94514993    0.10436014    0.58197913    -0.44830000
opls_148-116    C    0.38805026    0.22103990    0.57876002    -0.43270000
opls_148-117    C    0.21969999    0.38986014    0.45335898    -0.43310000
opls_148-118    C    0.38748003    0.39043001    0.65052972    -0.43320000
opls_145-119    C    0.60224023    0.23338993    0.41057965    -0.13130000
opls_144-120    H    0.13100027    0.97383999    0.05931962    0.07870000
opls_144-121    H    0.90178996    0.12978020    0.10297925    0.07570000
opls_144-122    H    0.97157011    0.90542998    0.05620940    0.07980000
opls_146-123    H    0.92521007    0.31271996    0.97034863    0.10590000
opls_146-124    H    0.79169011    0.28768009    0.97106944    0.10930000
opls_146-125    H    0.30832034    0.77099998    0.98623866    0.10620000
opls_146-126    H    0.28802020    0.91966025    0.80662961    0.10570000
opls_146-127    H    0.76555994    0.92554030    0.03438878    0.10540000
opls_146-128    H    0.91932997    0.79926018    0.89056873    0.10710000
opls_146-129    H    0.88036000    0.38467019    0.96359908    0.10990000
opls_146-130    H    0.74635019    0.36052018    0.93897958    0.10470000
opls_146-131    H    0.35956005    0.89408025    0.94848967    0.10710000
opls_146-132    H    0.73728015    0.88031992    0.94205912    0.10840000
opls_146-133    H    0.89531020    0.75321020    0.01447908    0.10550000
opls_144-134    H    0.53716991    0.69416015    0.12137064    0.06280000
opls_144-135    H    0.69290011    0.76089024    0.87874898    0.06100000
opls_144-136    H    0.76504998    0.53955005    0.15642963    0.05910000
opls_146-137    H    0.82110010    0.47808007    0.96703903    0.10550000
opls_146-138    H    0.47679019    0.70463008    0.88536970    0.10580000
opls_146-139    H    0.85014020    0.19562989    0.99980983    0.10590000
opls_146-140    H    0.19218015    0.95753003    0.83389004    0.10710000
opls_146-141    H    0.38103999    0.74128023    0.84300906    0.10570000
opls_146-142    H    0.70351030    0.82013992    0.98088933    0.10550000
opls_146-143    H    0.95425012    0.85839023    0.90119992    0.10590000
opls_144-144    H    0.86983984    0.02266016    0.59151990    0.07530000
opls_144-145    H    0.10071020    0.86828013    0.59003994    0.06440000
opls_144-146    H    0.02491008    0.09195999    0.43803946    0.06490000
opls_146-147    H    0.08985003    0.68005022    0.56527934    0.10670000
opls_146-148    H    0.20875012    0.71314009    0.34780015    0.10550000
opls_146-149    H    0.69117010    0.22925011    0.54819920    0.10730000
opls_146-150    H    0.71154007    0.08194985    0.34484943    0.10700000
opls_146-151    H    0.22299012    0.08606013    0.38137917    0.10620000
opls_146-152    H    0.07647001    0.20276005    0.63338977    0.10600000
opls_146-153    H    0.12866995    0.61542028    0.36663937    0.10880000
opls_146-154    H    0.26016989    0.63879017    0.49750017    0.10440000
opls_146-155    H    0.64209993    0.10645011    0.50188944    0.10540000
opls_146-156    H    0.25105005    0.12657990    0.60309887    0.10490000
opls_146-157    H    0.09854012    0.25293007    0.43870966    0.10130000
opls_144-158    H    0.46199998    0.30462006    0.62660955    0.06630000
opls_144-159    H    0.30361009    0.23559010    0.44135979    0.06170000
opls_144-160    H    0.23513003    0.46314012    0.60892977    0.06350000
opls_146-161    H    0.18807000    0.52077991    0.37505905    0.10550000
opls_146-162    H    0.52165019    0.29396994    0.39366975    0.10580000
opls_146-163    H    0.14663991    0.80631016    0.37616020    0.10550000
opls_146-164    H    0.80664027    0.04383985    0.38288980    0.10490000
opls_146-165    H    0.61751004    0.25900017    0.37057008    0.10510000
opls_146-166    H    0.28561995    0.18741996    0.62411892    0.10720000
opls_146-167    H    0.04454028    0.14042982    0.63694935    0.10970000
opls_702-168    H    0.39725012    0.20041020    0.43090957    0.12360000
opls_702-169    H    0.36419001    0.20907005    0.66707922    0.12420000
opls_702-170    H    0.42542003    0.20789982    0.65999994    0.12770000
opls_702-171    H    0.21135013    0.36910990    0.33164940    0.12170000
opls_702-172    H    0.20779007    0.42882005    0.39677997    0.12660000
opls_702-173    H    0.19452999    0.39304013    0.58239015    0.12310000
opls_702-174    H    0.40954007    0.39483002    0.52415941    0.12310000
opls_702-175    H    0.41535000    0.37007999    0.77629884    0.12410000
opls_702-176    H    0.35955000    0.42928016    0.70380987    0.13000000
opls_702-177    H    0.57661998    0.79106002    0.17206047    0.12390000
opls_702-178    H    0.59335984    0.79882015    0.92108048    0.12620000
opls_702-179    H    0.63593011    0.79201008    0.13158008    0.12390000
opls_702-180    H    0.79073994    0.63326011    0.87294876    0.12670000
opls_702-181    H    0.78904025    0.57428990    0.88928968    0.12100000
opls_702-182    H    0.80447015    0.60002009    0.10892977    0.12350000
opls_702-183    H    0.64149007    0.56779010    0.18774040    0.12680000
opls_702-184    H    0.59065002    0.60527009    0.01156057    0.12540000
opls_702-185    H    0.58607024    0.62588997    0.26975020    0.12000000
opls_702-186    H    0.06346993    0.87290005    0.89908043    0.12310000
opls_702-187    H    0.03660011    0.87721999    0.14468962    0.12550000
opls_702-188    H    0.09582012    0.87823021    0.11776966    0.12050000
opls_702-189    H    0.87276000    0.03659990    0.14170976    0.12060000
opls_702-190    H    0.86861001    0.06495002    0.90335008    0.12170000
opls_702-191    H    0.86892990    0.09756998    0.13108011    0.11050000
opls_702-192    H    0.03609003    0.09304012    0.87939004    0.12310000
opls_702-193    H    0.09705009    0.03742001    0.93173007    0.13310000
opls_702-194    H    0.05966023    0.08071994    0.13034857    0.12410000
opls_702-195    H    0.96239000    0.90171022    0.64211924    0.12620000
opls_702-196    H    0.94825990    0.91514024    0.38217973    0.12340000
opls_702-197    H    0.90250028    0.95612004    0.56552932    0.12840000
opls_702-198    H    0.12475996    0.96217021    0.38917006    0.13090000
opls_702-199    H    0.12351990    0.90307032    0.36828956    0.12490000
opls_702-200    H    0.13683006    0.92321024    0.60580881    0.12600000
opls_702-201    H    0.91158015    0.11585006    0.68204906    0.12420000
opls_702-202    H    0.92918987    0.12668012    0.43941973    0.12360000
opls_702-203    H    0.97110020    0.11656998    0.65474876    0.12060000
opls_909-204    H    0.35343008    0.50055013    0.51193938    0.27990000
opls_909-205    H    0.34618026    0.56117005    0.54478992    0.28270000
opls_909-206    H    0.00002019    0.75489992    0.57766961    0.27930000
opls_909-207    H    0.99020007    0.81625004    0.55931962    0.28980000
opls_909-208    H    0.56251985    0.09715012    0.48430934    0.27990000
opls_909-209    H    0.50177014    0.15117990    0.49172909    0.27560000
opls_909-210    H    0.83246000    0.18066001    0.56640963    0.27650000
opls_909-211    H    0.77274992    0.23562998    0.57113937    0.28000000
opls_909-212    H    0.09344017    0.33763993    0.37387047    0.28240000
opls_909-213    H    0.14544998    0.34644010    0.43926944    0.27940000
opls_909-214    H    0.18550997    0.98603981    0.41741968    0.27770000
opls_909-215    H    0.23577998    0.99739999    0.36225009    0.27960000
opls_909-216    H    0.49938014    0.84668026    0.00721884    0.28010000
opls_909-217    H    0.43824013    0.90078993    0.01497905    0.28250000
opls_909-218    H    0.22691019    0.76447007    0.98009030    0.27980000
opls_909-219    H    0.16741010    0.81927033    0.97363982    0.28020000
opls_909-220    H    0.75502987    0.01305018    0.99315997    0.28000000
opls_909-221    H    0.80921996    0.02038012    0.99394979    0.27780000
opls_909-222    H    0.85022010    0.66042009    0.08275055    0.28980000
opls_909-223    H    0.90413002    0.66865027    0.09061965    0.28000000
opls_909-224    H    0.66119998    0.43833000    0.87965996    0.27970000
opls_909-225    H    0.65533013    0.49823005    0.90887885    0.28980000
opls_909-226    H    0.01740026    0.17674980    0.04620854    0.27920000
opls_909-227    H    0.01071031    0.23740990    0.04392955    0.27900000
opls_237-228    N    0.79336996    0.99793011    0.03318028    -0.62120000
opls_237-229    N    0.20611016    0.80277018    0.01285036    -0.62100000
opls_237-230    N    0.86802014    0.68006021    0.02984001    -0.62100000
opls_237-231    N    0.67513001    0.46003001    0.94750968    -0.62120000
opls_237-232    N    0.99632021    0.21411014    0.99866880    -0.62120000
opls_237-233    N    0.46113001    0.86434008    0.96282920    -0.62110000
opls_237-234    N    0.19647017    0.01172004    0.36790922    -0.62120000
opls_237-235    N    0.79343005    0.19684010    0.59428965    -0.62110000
opls_237-236    N    0.12652002    0.32596022    0.45918987    -0.62120000
opls_237-237    N    0.33239007    0.53896010    0.48157026    -0.62110000
opls_237-238    N    0.01511006    0.77882006    0.60028004    -0.62120000
opls_237-239    N    0.54073010    0.13475982    0.52580961    -0.62110000
opls_750-240    N    0.14198007    0.90511003    0.93818975    -0.24630000
opls_750-241    N    0.95860985    0.14794017    0.02482041    -0.26810000
opls_750-242    N    0.89723033    0.96279994    0.97903976    -0.28590000
opls_750-243    N    0.52596025    0.76017006    0.96961861    -0.27110000
opls_750-244    N    0.76278995    0.71613031    0.03850967    -0.25840000
opls_750-245    N    0.71495988    0.52568023    0.97102956    -0.26630000
opls_750-246    N    0.85776007    0.09462984    0.50605021    -0.28950000
opls_750-247    N    0.04522005    0.84875022    0.49408015    -0.26790000
opls_750-248    N    0.10048004    0.03919990    0.52563937    -0.29070000
opls_750-249    N    0.47401029    0.23770983    0.48163928    -0.27450000
opls_750-250    N    0.23045983    0.29031016    0.54446019    -0.28910000
opls_750-251    N    0.29168016    0.47276013    0.45823901    -0.27690000
