#======================================================================
# Crystal Data Generated By AuToFF
#----------------------------------------------------------------------

data_AuToFF_phase_1

_cell_length_a                         27.4164
_cell_length_b                         25.0450
_cell_length_c                         4.1830
_cell_angle_alpha                      90.00
_cell_angle_beta                       90.00
_cell_angle_gamma                      90.00
_symmetry_space_group_name_H-M_alt     'P 1'
_symmetry_space_group_IT_number        1

loop_
_space_group_symop_operation_xyz
   'x, y, z'

loop_
   _atom_site_label
   _atom_site_type_symbol
   _atom_site_fract_x
   _atom_site_fract_y
   _atom_site_fract_z
   _atom_site_charge
opls_750-0    N    0.67927007    0.78208984    0.43288071    -0.16260000
opls_750-1    N    0.27284983    0.79679018    0.70074109    -0.15690000
opls_542-2    N    0.00682985    0.52013017    0.51137939    0.00900000
opls_542-3    N    0.95722013    0.52400000    0.51781018    0.00840000
opls_750-4    N    0.28623999    0.26466001    0.30464977    -0.16010000
opls_750-5    N    0.69106010    0.25019006    0.74593115    -0.15800000
opls_147-6    C    0.43818992    0.97148014    0.51104949    -0.00570000
opls_145-7    C    0.48172991    0.99676981    0.52285919    0.00280000
opls_147-8    C    0.52411002    0.96924017    0.54104949    -0.00570000
opls_145-9    C    0.43693993    0.91881014    0.53273010    -0.00410000
opls_145-10    C    0.47939992    0.89308006    0.53579010    -0.11440000
opls_145-11    C    0.52300995    0.91647994    0.53300024    -0.00410000
opls_145-12    C    0.39334012    0.88821002    0.56142960    0.03860000
opls_145-13    C    0.56520003    0.88337992    0.51984939    0.04300000
opls_145-14    C    0.34971003    0.90893991    0.65522113    -0.17060000
opls_145-15    C    0.31013992    0.87883011    0.69864929    -0.17590000
opls_145-16    C    0.31356013    0.82724017    0.65294047    0.24040000
opls_145-17    C    0.35694985    0.80619006    0.56033947    -0.17590000
opls_145-18    C    0.39620008    0.83630984    0.51562993    -0.17060000
opls_145-19    C    0.55977991    0.83204991    0.58558929    -0.17060000
opls_145-20    C    0.59755001    0.79943981    0.55808033    -0.17590000
opls_145-21    C    0.64181986    0.81720982    0.46312933    0.24040000
opls_145-22    C    0.64807013    0.86834019    0.39699976    -0.17590000
opls_145-23    C    0.60998016    0.90100020    0.42409993    -0.17110000
opls_142-24    C    0.27519988    0.74860012    0.68573034    0.12340000
opls_145-25    C    0.23403000    0.71669994    0.72200096    0.00990000
opls_145-26    C    0.18895989    0.73623997    0.76944059    -0.17610000
opls_145-27    C    0.15033009    0.70425993    0.78010997    -0.17610000
opls_145-28    C    0.15638012    0.65253983    0.74332058    0.03630000
opls_145-29    C    0.20180002    0.63350010    0.70194119    -0.17610000
opls_145-30    C    0.24027991    0.66532002    0.69218982    -0.17710000
opls_591-31    C    0.11570994    0.61864005    0.71854889    0.04070000
opls_592-32    C    0.06955983    0.63644001    0.77236911    -0.17120000
opls_593-33    C    0.03071009    0.60514993    0.71617978    -0.17620000
opls_594-34    C    0.03857983    0.55627990    0.59771934    0.11680000
opls_595-35    C    0.08362002    0.53880016    0.55916089    -0.01770000
opls_590-36    C    0.12267986    0.56850988    0.61579010    -0.11210000
opls_594-37    C    0.03331984    0.47949012    0.42165910    0.11680000
opls_595-38    C    0.08030011    0.49006987    0.45285919    -0.01990000
opls_593-39    C    0.01894997    0.43210980    0.30780062    -0.17610000
opls_592-40    C    0.05326994    0.39533999    0.24584987    -0.17080000
opls_591-41    C    0.10144986    0.40620004    0.29076978    0.04530000
opls_590-42    C    0.11501984    0.45485007    0.39142003    -0.11210000
opls_145-43    C    0.13748012    0.36676981    0.25430074    0.03890000
opls_145-44    C    0.12500985    0.31635017    0.21873058    -0.17610000
opls_145-45    C    0.15944982    0.27919984    0.21393019    -0.17610000
opls_145-46    C    0.20672991    0.29200998    0.24448004    0.00990000
opls_145-47    C    0.21930998    0.34227990    0.27458044    -0.17680000
opls_145-48    C    0.18504982    0.37921980    0.27958881    -0.17610000
opls_142-49    C    0.24257999    0.25285007    0.26283050    0.12430000
opls_142-50    C    0.72202988    0.79311998    0.34455893    0.12700000
opls_594-51    C    0.92577983    0.48800998    0.61469998    0.11630000
opls_594-52    C    0.93047993    0.56480016    0.43746115    0.11800000
opls_595-53    C    0.88366999    0.55452985    0.48652881    -0.01990000
opls_595-54    C    0.88066996    0.50581992    0.59366005    -0.02030000
opls_590-55    C    0.84178995    0.47639010    0.66498924    -0.11210000
opls_591-56    C    0.84906990    0.42622000    0.76502032    0.03860000
opls_592-57    C    0.89534986    0.40801996    0.79977050    -0.17120000
opls_593-58    C    0.93400994    0.43902016    0.72831939    -0.17610000
opls_593-59    C    0.94445989    0.61200000    0.31618934    -0.17640000
opls_592-60    C    0.91003998    0.64899980    0.26705953    -0.17110000
opls_591-61    C    0.86212997    0.63854981    0.33189099    0.04370000
opls_590-62    C    0.84886017    0.59000000    0.43807076    -0.11210000
opls_145-63    C    0.80840993    0.39265003    0.80760937    0.03610000
opls_145-64    C    0.82617995    0.67824995    0.31004064    0.03890000
opls_145-65    C    0.81423017    0.34069994    0.81284963    -0.17610000
opls_145-66    C    0.77526991    0.30919984    0.81710973    -0.17610000
opls_145-67    C    0.73008017    0.32941984    0.81758068    0.01000000
opls_145-68    C    0.72413008    0.38101018    0.82087019    -0.17770000
opls_145-69    C    0.76296013    0.41240008    0.81480995    -0.17600000
opls_145-70    C    0.83856013    0.72829986    0.24974898    -0.17050000
opls_145-71    C    0.80441013    0.76576003    0.25556060    -0.17060000
opls_145-72    C    0.75754986    0.75364983    0.32317954    0.01230000
opls_145-73    C    0.74503983    0.70376003    0.37867081    -0.17610000
opls_145-74    C    0.77898995    0.66650988    0.37224002    -0.17610000
opls_142-75    C    0.68842007    0.29796007    0.79448004    0.12340000
opls_145-76    C    0.32377008    0.22967019    0.33780062    0.23850000
opls_145-77    C    0.31628004    0.17800000    0.34468085    -0.17590000
opls_145-78    C    0.35417013    0.14538990    0.38709060    -0.14540000
opls_145-79    C    0.40009994    0.16351008    0.42448004    0.04090000
opls_145-80    C    0.40674997    0.21543981    0.41476930    -0.17610000
opls_145-81    C    0.36916991    0.24802995    0.37277074    -0.17680000
opls_145-82    C    0.44183992    0.13012018    0.47349032    -0.00300000
opls_147-83    C    0.44061985    0.07729008    0.48278986    -0.00570000
opls_145-84    C    0.48289017    0.04979996    0.51818073    0.00280000
opls_147-85    C    0.52629010    0.07506009    0.55153956    -0.00570000
opls_145-86    C    0.52740002    0.12782991    0.55840067    -0.00280000
opls_145-87    C    0.48522016    0.15346017    0.51559885    -0.11210000
opls_145-88    C    0.57053005    0.15869994    0.61289983    0.03860000
opls_145-89    C    0.61585985    0.13878020    0.58654076    -0.17060000
opls_145-90    C    0.65530996    0.16888002    0.63492948    -0.17570000
opls_145-91    C    0.65023015    0.21969016    0.70987091    0.23980000
opls_145-92    C    0.60518011    0.24004991    0.73664117    -0.17590000
opls_145-93    C    0.56597000    0.20986983    0.68939995    -0.17610000
opls_145-94    C    0.39843998    0.05116989    0.46027970    -0.14690000
opls_145-95    C    0.39721991    0.99950010    0.47563949    -0.17770000
opls_145-96    C    0.56625998    0.99519984    0.57282094    -0.17760000
opls_145-97    C    0.56724989    0.04687003    0.58076978    -0.17710000
opls_146-98    H    0.47965998    0.85061010    0.54082955    0.27390000
opls_146-99    H    0.34618987    0.95089000    0.69706909    0.09990000
opls_146-100    H    0.27497009    0.89636015    0.77153000    0.11550000
opls_146-101    H    0.36023986    0.76417009    0.52124074    0.27440000
opls_146-102    H    0.43136006    0.81891994    0.44065981    0.11450000
opls_146-103    H    0.52398017    0.81640008    0.66299068    0.13360000
opls_146-104    H    0.59234983    0.75796007    0.61337079    0.10780000
opls_146-105    H    0.68415985    0.88333999    0.32115945    0.13390000
opls_146-106    H    0.61505012    0.94247994    0.36821898    0.10780000
opls_144-107    H    0.31040983    0.72950010    0.64269902    0.10180000
opls_146-108    H    0.18378015    0.77817009    0.79930911    0.12200000
opls_146-109    H    0.11366007    0.72013017    0.81885967    0.11320000
opls_146-110    H    0.20751010    0.59159992    0.67589051    0.12210000
opls_146-111    H    0.27701011    0.64936993    0.65974898    0.12030000
opls_601-112    H    0.06347004    0.67668996    0.86256036    0.11850000
opls_602-113    H    0.99390000    0.61989020    0.76735118    0.06910000
opls_599-114    H    0.15919997    0.55218008    0.57891944    0.11860000
opls_602-115    H    0.98020017    0.42385985    0.26692087    0.06910000
opls_601-116    H    0.04245014    0.35614015    0.15813053    0.11840000
opls_599-117    H    0.15369013    0.46445997    0.42050920    0.12690000
opls_146-118    H    0.08662005    0.30537992    0.19349032    0.11350000
opls_146-119    H    0.14899002    0.23838012    0.18506096    0.27440000
opls_146-120    H    0.25777017    0.35318986    0.29517093    0.12110000
opls_146-121    H    0.19553005    0.42007986    0.30443940    0.12240000
opls_144-122    H    0.23194001    0.21201996    0.24022950    0.11670000
opls_144-123    H    0.73206001    0.83342983    0.28353096    0.11330000
opls_599-124    H    0.80520017    0.49297984    0.64192924    0.11870000
opls_601-125    H    0.90170993    0.36770014    0.88677982    0.12290000
opls_602-126    H    0.97103011    0.42396007    0.76361941    0.12100000
opls_602-127    H    0.98299011    0.61990018    0.25927086    0.07540000
opls_601-128    H    0.92055996    0.68806987    0.17376046    0.11900000
opls_599-129    H    0.81035001    0.58066999    0.48200096    0.08800000
opls_146-130    H    0.85088013    0.32397005    0.81365049    0.12000000
opls_146-131    H    0.78026984    0.26706009    0.82018886    0.27390000
opls_146-132    H    0.68744000    0.39760990    0.82852976    0.12040000
opls_146-133    H    0.75797990    0.45454981    0.81567057    0.27390000
opls_146-134    H    0.87663005    0.73868996    0.19556060    0.07350000
opls_146-135    H    0.81476999    0.80622999    0.20512073    0.10790000
opls_146-136    H    0.70689004    0.69339988    0.42949080    0.06770000
opls_146-137    H    0.76854985    0.62596007    0.41782931    0.11930000
opls_144-138    H    0.65280015    0.31672989    0.82064069    0.11320000
opls_146-139    H    0.27932004    0.16251986    0.31574946    0.11990000
opls_146-140    H    0.34803986    0.10341984    0.39170930    -0.10490000
opls_146-141    H    0.44346012    0.23162987    0.44152044    0.11820000
opls_146-142    H    0.37545994    0.28997005    0.36684915    0.09780000
opls_146-143    H    0.48489991    0.19594011    0.51367918    0.27390000
opls_146-144    H    0.62091011    0.09743981    0.52477887    0.12320000
opls_146-145    H    0.69180016    0.15198004    0.61326082    0.11870000
opls_146-146    H    0.60052997    0.28146017    0.79731054    0.13020000
opls_146-147    H    0.52942983    0.22659014    0.71261057    0.11870000
opls_146-148    H    0.36407005    0.07229986    0.42861104    -0.10480000
opls_146-149    H    0.36231015    0.97910002    0.45929955    0.12350000
opls_146-150    H    0.60026006    0.97310002    0.59240019    0.12400000
opls_146-151    H    0.60201011    0.06728010    0.61169974    0.11850000
