#======================================================================
# Crystal Data Generated By AuToFF
#----------------------------------------------------------------------

data_AuToFF_phase_1

_cell_length_a                         22.0730
_cell_length_b                         22.0730
_cell_length_c                         12.0000
_cell_angle_alpha                      90.00
_cell_angle_beta                       90.00
_cell_angle_gamma                      90.00
_symmetry_space_group_name_H-M_alt     'P 1'
_symmetry_space_group_IT_number        1

loop_
_space_group_symop_operation_xyz
   'x, y, z'

loop_
   _atom_site_label
   _atom_site_type_symbol
   _atom_site_fract_x
   _atom_site_fract_y
   _atom_site_fract_z
   _atom_site_charge
opls_521-0    C    0.36981018    0.14144022    0.00699000    0.23740000
opls_522-1    C    0.33488017    0.19455987    0.00645000    -0.14940000
opls_523-2    C    0.27144022    0.19470983    0.00623000    -0.08580000
opls_700-3    C    0.23640013    0.14161011    0.00662000    0.07680000
opls_523-4    C    0.27122004    0.08846011    0.00750000    -0.08350000
opls_522-5    C    0.33464006    0.08835999    0.00779000    -0.14990000
opls_716-6    C    0.88126988    0.30940017    0.99569000    -0.10960000
opls_716-7    C    0.83274000    0.26095003    0.00144000    -0.10970000
opls_543-8    C    0.86631994    0.20016989    0.00336000    0.20460000
opls_543-9    C    0.94206995    0.27579985    0.99441000    0.20990000
opls_700-10    C    0.00040004    0.31054999    0.99165000    -0.11660000
opls_700-11    C    0.83162008    0.14222987    0.00597000    -0.11660000
opls_716-12    C    0.11859013    0.97471979    0.00042000    -0.10970000
opls_716-13    C    0.16712001    0.02325012    0.00298000    -0.10970000
opls_543-14    C    0.13364019    0.08406016    0.00329000    0.20460000
opls_543-15    C    0.05783989    0.00832012    0.99984000    0.20160000
opls_700-16    C    0.16847008    0.14196983    0.00388000    -0.11660000
opls_700-17    C    0.99978979    0.97369003    0.00053000    -0.11660000
opls_716-18    C    0.83263988    0.02353010    0.00662000    -0.10970000
opls_716-19    C    0.88106012    0.97491007    0.00394000    -0.10960000
opls_543-20    C    0.94191999    0.00843021    0.00189000    0.20460000
opls_543-21    C    0.86628007    0.08429982    0.00560000    0.20430000
opls_716-22    C    0.16743986    0.26083994    0.99929000    -0.10960000
opls_716-23    C    0.11892991    0.30940017    0.99374000    -0.10960000
opls_543-24    C    0.05807004    0.27589000    0.99377000    0.20730000
opls_543-25    C    0.13387985    0.20002990    0.00183000    0.20320000
opls_700-26    C    0.76365016    0.14233000    0.00696000    0.07070000
opls_523-27    C    0.72872016    0.19546006    0.00643000    -0.08340000
opls_522-28    C    0.66528021    0.19561002    0.00620000    -0.13060000
opls_521-29    C    0.63024011    0.14249989    0.00659000    0.23750000
opls_522-30    C    0.66506003    0.08934988    0.00747000    -0.14960000
opls_523-31    C    0.72849001    0.08926018    0.00777000    -0.08580000
opls_528-32    C    0.46804014    0.08128981    0.95918000    -0.01760000
opls_528-33    C    0.52765007    0.08423005    0.02563000    -0.01760000
opls_528-34    C    0.52779006    0.19561999    0.02776000    0.20530000
opls_528-35    C    0.46798985    0.19975989    0.96206000    0.01660000
opls_700-36    C    0.99992978    0.90587007    0.00848000    -0.01860000
opls_700-37    C    0.94681013    0.87095003    0.00852000    0.01420000
opls_713-38    C    0.94666017    0.80751008    0.00870000    0.01670000
MOF2_C_3-39    C    0.99976985    0.77246999    0.00898000    0.00540000
opls_713-40    C    0.05291986    0.80728990    0.00930000    0.00840000
opls_700-41    C    0.05301001    0.87071988    0.00918000    0.01770000
opls_521-42    C    0.00017986    0.51155982    0.00460000    0.23740000
opls_522-43    C    0.94697005    0.47646990    0.00463000    -0.14990000
opls_523-44    C    0.94703982    0.41302995    0.00482000    -0.08340000
opls_700-45    C    0.00026005    0.37818013    0.00509000    0.07330000
opls_523-46    C    0.05329996    0.41317990    0.00541000    -0.08350000
opls_522-47    C    0.05316994    0.47660989    0.00529000    -0.14960000
opls_528-48    C    0.05835002    0.60971005    0.95577000    -0.01760000
opls_528-49    C    0.05544013    0.66944004    0.02185000    0.02810000
opls_528-50    C    0.94405020    0.66940017    0.02470000    0.19400000
opls_528-51    C    0.93989988    0.60945997    0.95941000    0.01660000
opls_713-52    C    0.94625017    0.80682010    0.00229000    0.00650000
MOF2_C_3-53    C    0.99930005    0.77167988    0.00257000    0.00550000
opls_713-54    C    0.05250985    0.80641009    0.00288000    0.01670000
opls_135-55    C    0.56561002    0.25270013    0.00073000    -0.39620000
opls_143-56    C    0.88708014    0.70735016    0.02185000    -0.34450000
opls_521-57    C    0.63018982    0.85855978    0.50699000    0.23740000
opls_522-58    C    0.66511983    0.80544013    0.50645000    -0.14940000
opls_523-59    C    0.72855978    0.80529017    0.50623000    -0.08580000
opls_700-60    C    0.76359987    0.85838989    0.50662000    0.07680000
opls_523-61    C    0.72877996    0.91153989    0.50750000    -0.08350000
opls_522-62    C    0.66535994    0.91164001    0.50779000    -0.14990000
opls_716-63    C    0.11873012    0.69059983    0.49569000    -0.10960000
opls_716-64    C    0.16726000    0.73904997    0.50144000    -0.10970000
opls_543-65    C    0.13368006    0.79983011    0.50336000    0.20460000
opls_543-66    C    0.05793005    0.72420015    0.49441000    0.20990000
opls_700-67    C    0.99959996    0.68945001    0.49165000    -0.11660000
opls_700-68    C    0.16837992    0.85777013    0.50597000    -0.11660000
opls_716-69    C    0.88140987    0.02528021    0.50042000    -0.10970000
opls_716-70    C    0.83287999    0.97674988    0.50298000    -0.10970000
opls_543-71    C    0.86635981    0.91593984    0.50329000    0.20460000
opls_543-72    C    0.94216011    0.99167988    0.49984000    0.20160000
opls_700-73    C    0.83152992    0.85803017    0.50388000    -0.11660000
opls_700-74    C    0.00021021    0.02630997    0.50053000    -0.11660000
opls_716-75    C    0.16736012    0.97646990    0.50662000    -0.10970000
opls_716-76    C    0.11893988    0.02508993    0.50394000    -0.10960000
opls_543-77    C    0.05808001    0.99156979    0.50189000    0.20460000
opls_543-78    C    0.13371993    0.91570018    0.50560000    0.20430000
opls_716-79    C    0.83256014    0.73916006    0.49929000    -0.10960000
opls_716-80    C    0.88107009    0.69059983    0.49374000    -0.10960000
opls_543-81    C    0.94192996    0.72411000    0.49377000    0.20730000
opls_543-82    C    0.86612015    0.79997010    0.50183000    0.20320000
opls_700-83    C    0.23634984    0.85767000    0.50696000    0.07070000
opls_523-84    C    0.27127984    0.80453994    0.50643000    -0.08340000
opls_522-85    C    0.33471979    0.80438998    0.50620000    -0.13060000
opls_521-86    C    0.36975989    0.85750011    0.50659000    0.23750000
opls_522-87    C    0.33493997    0.91065012    0.50747000    -0.14960000
opls_523-88    C    0.27150999    0.91073982    0.50777000    -0.08580000
opls_528-89    C    0.53195986    0.91871019    0.45918000    -0.01760000
opls_528-90    C    0.47234993    0.91576995    0.52563000    -0.01760000
opls_528-91    C    0.47220994    0.80438001    0.52776000    0.20530000
opls_528-92    C    0.53201015    0.80024011    0.46206000    0.01660000
opls_700-93    C    0.00007022    0.09412993    0.50848000    -0.01860000
opls_700-94    C    0.05318987    0.12904997    0.50852000    0.01420000
opls_713-95    C    0.05333983    0.19248992    0.50870000    0.01670000
MOF2_C_3-96    C    0.00023015    0.22753001    0.50898000    0.00540000
opls_713-97    C    0.94708014    0.19271010    0.50930000    0.00840000
opls_700-98    C    0.94698999    0.12928012    0.50918000    0.01770000
opls_521-99    C    0.99982014    0.48844018    0.50460000    0.23740000
opls_522-100    C    0.05302995    0.52353010    0.50463000    -0.14990000
opls_523-101    C    0.05296018    0.58697005    0.50482000    -0.08340000
opls_700-102    C    0.99973995    0.62181987    0.50509000    0.07330000
opls_523-103    C    0.94670004    0.58682010    0.50541000    -0.08350000
opls_522-104    C    0.94683006    0.52339011    0.50529000    -0.14960000
opls_528-105    C    0.94164998    0.39028995    0.45577000    -0.01760000
opls_528-106    C    0.94455987    0.33055996    0.52185000    0.02810000
opls_528-107    C    0.05594980    0.33059983    0.52470000    0.19400000
opls_528-108    C    0.06010012    0.39054003    0.45941000    0.01660000
opls_713-109    C    0.05374983    0.19317990    0.50229000    0.00650000
MOF2_C_3-110    C    0.00069995    0.22832012    0.50257000    0.00550000
opls_713-111    C    0.94749015    0.19358991    0.50288000    0.01670000
opls_135-112    C    0.43438998    0.74729987    0.50073000    -0.39620000
opls_143-113    C    0.11291986    0.29264984    0.52185000    -0.34450000
opls_521-114    C    0.85855978    0.36981018    0.25699000    0.23740000
opls_522-115    C    0.80544013    0.33488017    0.25645000    -0.14940000
opls_523-116    C    0.80529017    0.27144022    0.25623000    -0.08580000
opls_700-117    C    0.85838989    0.23640013    0.25662000    0.07680000
opls_523-118    C    0.91153989    0.27122004    0.25750000    -0.08350000
opls_522-119    C    0.91164001    0.33464006    0.25779000    -0.14990000
opls_716-120    C    0.69059983    0.88126988    0.24569000    -0.10960000
opls_716-121    C    0.73904997    0.83274000    0.25144000    -0.10970000
opls_543-122    C    0.79983011    0.86631994    0.25336000    0.20460000
opls_543-123    C    0.72420015    0.94206995    0.24441000    0.20990000
opls_700-124    C    0.68945001    0.00040004    0.24165000    -0.11660000
opls_700-125    C    0.85777013    0.83162008    0.25597000    -0.11660000
opls_716-126    C    0.02528021    0.11859013    0.25042000    -0.10970000
opls_716-127    C    0.97674988    0.16712001    0.25298000    -0.10970000
opls_543-128    C    0.91593984    0.13364019    0.25329000    0.20460000
opls_543-129    C    0.99167988    0.05783989    0.24984000    0.20160000
opls_700-130    C    0.85803017    0.16847008    0.25388000    -0.11660000
opls_700-131    C    0.02630997    0.99978979    0.25053000    -0.11660000
opls_716-132    C    0.97646990    0.83263988    0.25662000    -0.10970000
opls_716-133    C    0.02508993    0.88106012    0.25394000    -0.10960000
opls_543-134    C    0.99156979    0.94191999    0.25189000    0.20460000
opls_543-135    C    0.91570018    0.86628007    0.25560000    0.20430000
opls_716-136    C    0.73916006    0.16743986    0.24929000    -0.10960000
opls_716-137    C    0.69059983    0.11892991    0.24374000    -0.10960000
opls_543-138    C    0.72411000    0.05807004    0.24377000    0.20730000
opls_543-139    C    0.79997010    0.13387985    0.25183000    0.20320000
opls_700-140    C    0.85767000    0.76365016    0.25696000    0.07070000
opls_523-141    C    0.80453994    0.72872016    0.25643000    -0.08340000
opls_522-142    C    0.80438998    0.66528021    0.25620000    -0.13060000
opls_521-143    C    0.85750011    0.63024011    0.25659000    0.23750000
opls_522-144    C    0.91065012    0.66506003    0.25747000    -0.14960000
opls_523-145    C    0.91073982    0.72849001    0.25777000    -0.08580000
opls_528-146    C    0.91871019    0.46804014    0.20918000    -0.01750000
opls_528-147    C    0.91576995    0.52765007    0.27563000    -0.01760000
opls_528-148    C    0.80438001    0.52779006    0.27776000    0.20530000
opls_528-149    C    0.80024011    0.46798985    0.21206000    0.01660000
opls_700-150    C    0.09412993    0.99992978    0.25848000    -0.01860000
opls_700-151    C    0.12904997    0.94681013    0.25852000    0.01420000
opls_713-152    C    0.19248992    0.94666017    0.25870000    0.01670000
MOF2_C_3-153    C    0.22753001    0.99976985    0.25898000    0.00540000
opls_713-154    C    0.19271010    0.05291986    0.25930000    0.00840000
opls_700-155    C    0.12928012    0.05301001    0.25918000    0.01770000
opls_521-156    C    0.48844018    0.00017986    0.25460000    0.23740000
opls_522-157    C    0.52353010    0.94697005    0.25463000    -0.14980000
opls_523-158    C    0.58697005    0.94703982    0.25482000    -0.08340000
opls_700-159    C    0.62181987    0.00026005    0.25509000    0.07330000
opls_523-160    C    0.58682010    0.05329996    0.25541000    -0.08350000
opls_522-161    C    0.52339011    0.05316994    0.25529000    -0.14960000
opls_528-162    C    0.39028995    0.05835002    0.20577000    -0.01760000
opls_528-163    C    0.33055996    0.05544013    0.27185000    0.02810000
opls_528-164    C    0.33059983    0.94405020    0.27470000    0.19400000
opls_528-165    C    0.39054003    0.93989988    0.20941000    0.01660000
opls_713-166    C    0.19317990    0.94625017    0.25229000    0.00650000
MOF2_C_3-167    C    0.22832012    0.99930005    0.25257000    0.00550000
opls_713-168    C    0.19358991    0.05250985    0.25288000    0.01670000
opls_135-169    C    0.74729987    0.56561002    0.25073000    -0.39620000
opls_143-170    C    0.29264984    0.88708014    0.27185000    -0.34450000
opls_521-171    C    0.14144022    0.63018982    0.75699000    0.23740000
opls_522-172    C    0.19455987    0.66511983    0.75645000    -0.14940000
opls_523-173    C    0.19470983    0.72855978    0.75623000    -0.08580000
opls_700-174    C    0.14161011    0.76359987    0.75662000    0.07680000
opls_523-175    C    0.08846011    0.72877996    0.75750000    -0.08350000
opls_522-176    C    0.08835999    0.66535994    0.75779000    -0.14990000
opls_716-177    C    0.30940017    0.11873012    0.74569000    -0.10960000
opls_716-178    C    0.26095003    0.16726000    0.75144000    -0.10970000
opls_543-179    C    0.20016989    0.13368006    0.75336000    0.20460000
opls_543-180    C    0.27579985    0.05793005    0.74441000    0.20990000
opls_700-181    C    0.31054999    0.99959996    0.74165000    -0.11660000
opls_700-182    C    0.14222987    0.16837992    0.75597000    -0.11660000
opls_716-183    C    0.97471979    0.88140987    0.75042000    -0.10970000
opls_716-184    C    0.02325012    0.83287999    0.75298000    -0.10970000
opls_543-185    C    0.08406016    0.86635981    0.75329000    0.20460000
opls_543-186    C    0.00832012    0.94216011    0.74984000    0.20160000
opls_700-187    C    0.14196983    0.83152992    0.75388000    -0.11660000
opls_700-188    C    0.97369003    0.00021021    0.75053000    -0.11660000
opls_716-189    C    0.02353010    0.16736012    0.75662000    -0.10970000
opls_716-190    C    0.97491007    0.11893988    0.75394000    -0.10960000
opls_543-191    C    0.00843021    0.05808001    0.75189000    0.20460000
opls_543-192    C    0.08429982    0.13371993    0.75560000    0.20450000
opls_716-193    C    0.26083994    0.83256014    0.74929000    -0.10960000
opls_716-194    C    0.30940017    0.88107009    0.74374000    -0.10960000
opls_543-195    C    0.27589000    0.94192996    0.74377000    0.20730000
opls_543-196    C    0.20002990    0.86612015    0.75183000    0.20320000
opls_700-197    C    0.14233000    0.23634984    0.75696000    0.07070000
opls_523-198    C    0.19546006    0.27127984    0.75643000    -0.08340000
opls_522-199    C    0.19561002    0.33471979    0.75620000    -0.13060000
opls_521-200    C    0.14249989    0.36975989    0.75659000    0.23750000
opls_522-201    C    0.08934988    0.33493997    0.75747000    -0.14960000
opls_523-202    C    0.08926018    0.27150999    0.75777000    -0.08580000
opls_528-203    C    0.08128981    0.53195986    0.70918000    -0.01760000
opls_528-204    C    0.08423005    0.47234993    0.77563000    -0.01760000
opls_528-205    C    0.19561999    0.47220994    0.77776000    0.20530000
opls_528-206    C    0.19975989    0.53201015    0.71206000    0.01660000
opls_700-207    C    0.90587007    0.00007022    0.75848000    -0.01860000
opls_700-208    C    0.87095003    0.05318987    0.75852000    0.01420000
opls_713-209    C    0.80751008    0.05333983    0.75870000    0.01670000
MOF2_C_3-210    C    0.77246999    0.00023015    0.75898000    0.00540000
opls_713-211    C    0.80728990    0.94708014    0.75930000    0.00840000
opls_700-212    C    0.87071988    0.94698999    0.75918000    0.01770000
opls_521-213    C    0.51155982    0.99982014    0.75460000    0.23740000
opls_522-214    C    0.47646990    0.05302995    0.75463000    -0.14990000
opls_523-215    C    0.41302995    0.05296018    0.75482000    -0.08340000
opls_700-216    C    0.37818013    0.99973995    0.75509000    0.07330000
opls_523-217    C    0.41317990    0.94670004    0.75541000    -0.08340000
opls_522-218    C    0.47660989    0.94683006    0.75529000    -0.14960000
opls_528-219    C    0.60971005    0.94164998    0.70577000    -0.01760000
opls_528-220    C    0.66944004    0.94455987    0.77185000    0.02810000
opls_528-221    C    0.66940017    0.05594980    0.77470000    0.19400000
opls_528-222    C    0.60945997    0.06010012    0.70941000    0.01660000
opls_713-223    C    0.80682010    0.05374983    0.75229000    0.00650000
MOF2_C_3-224    C    0.77167988    0.00069995    0.75257000    0.00550000
opls_713-225    C    0.80641009    0.94749015    0.75288000    0.01670000
opls_135-226    C    0.25270013    0.43438998    0.75073000    -0.39620000
opls_143-227    C    0.70735016    0.11291986    0.77185000    -0.34450000
opls_542-228    N    0.93491007    0.20725003    0.99931000    -0.35010000
opls_542-229    N    0.06504009    0.07694015    0.00125000    -0.35000000
opls_542-230    N    0.93483985    0.07704979    0.00275000    -0.35010000
opls_542-231    N    0.06523989    0.20726000    0.99878000    -0.35010000
opls_239-232    N    0.43407013    0.14045984    0.96902000    -0.00130000
opls_239-233    N    0.56285009    0.14005980    0.99257000    -0.08350000
opls_239-234    N    0.99927015    0.57565986    0.96621000    -0.00130000
opls_288-235    N    0.99947991    0.70448013    0.98892000    -0.01290000
opls_542-236    N    0.06508993    0.79274997    0.49931000    -0.35010000
opls_542-237    N    0.93495991    0.92305985    0.50125000    -0.35010000
opls_542-238    N    0.06516015    0.92295021    0.50275000    -0.35010000
opls_542-239    N    0.93476011    0.79274000    0.49878000    -0.35010000
opls_239-240    N    0.56592987    0.85954016    0.46902000    -0.00130000
opls_239-241    N    0.43714991    0.85994020    0.49257000    -0.08350000
opls_239-242    N    0.00072985    0.42434014    0.46621000    -0.00130000
opls_288-243    N    0.00052009    0.29551987    0.48892000    -0.01290000
opls_542-244    N    0.79274997    0.93491007    0.24931000    -0.35010000
opls_542-245    N    0.92305985    0.06504009    0.25125000    -0.35000000
opls_542-246    N    0.92295021    0.93483985    0.25275000    -0.35010000
opls_542-247    N    0.79274000    0.06523989    0.24878000    -0.35010000
opls_239-248    N    0.85954016    0.43407013    0.21902000    -0.00130000
opls_239-249    N    0.85994020    0.56285009    0.24257000    -0.08350000
opls_239-250    N    0.42434014    0.99927015    0.21621000    -0.00130000
opls_288-251    N    0.29551987    0.99947991    0.23892000    -0.01290000
opls_542-252    N    0.20725003    0.06508993    0.74931000    -0.35010000
opls_542-253    N    0.07694015    0.93495991    0.75125000    -0.35010000
opls_542-254    N    0.07704979    0.06516015    0.75275000    -0.35010000
opls_542-255    N    0.20726000    0.93476011    0.74878000    -0.35010000
opls_239-256    N    0.14045984    0.56592987    0.71902000    -0.00130000
opls_239-257    N    0.14005980    0.43714991    0.74257000    -0.08350000
opls_239-258    N    0.57565986    0.00072985    0.71621000    -0.00130000
opls_288-259    N    0.70448013    0.00052009    0.73892000    -0.01290000
Cu2+-260    Cu    0.00003987    0.14211978    0.00051000    0.71470000
Cu2+-261    Cu    0.99996013    0.85788022    0.50051000    0.71470000
Cu2+-262    Cu    0.85788022    0.00003987    0.25051000    0.71470000
Cu2+-263    Cu    0.14211978    0.99996013    0.75051000    0.71470000
opls_140-264    H    0.56607983    0.26036017    0.90679000    0.09320000
opls_144-265    H    0.84717981    0.69284012    0.96776000    0.10490000
opls_525-266    H    0.35806007    0.24070992    0.00617000    0.04580000
opls_526-267    H    0.24572011    0.23949984    0.00571000    0.04580000
opls_526-268    H    0.24795995    0.04234993    0.00802000    0.04580000
opls_525-269    H    0.36039007    0.04358991    0.00872000    0.04580000
opls_547-270    H    0.21699995    0.00987994    0.00422000    0.04580000
opls_547-271    H    0.21733022    0.27419019    0.00072000    0.04580000
opls_547-272    H    0.13235990    0.35923980    0.99059000    0.04580000
opls_547-273    H    0.86792008    0.35927015    0.99330000    0.04580000
opls_547-274    H    0.78287999    0.27437004    0.00339000    0.04580000
opls_547-275    H    0.13195986    0.92483985    0.99937000    0.04580000
opls_547-276    H    0.78274000    0.01026005    0.00882000    0.04580000
opls_547-277    H    0.86758982    0.92505006    0.00380000    0.04580000
opls_526-278    H    0.75191003    0.24161011    0.00616000    0.04580000
opls_144-279    H    0.63956010    0.24040004    0.00567000    -0.10560000
opls_525-280    H    0.64179994    0.04324016    0.00798000    0.04580000
opls_526-281    H    0.75424999    0.04450007    0.00871000    0.04580000
opls_146-282    H    0.44833009    0.04263988    0.90766000    0.02700000
opls_146-283    H    0.53899017    0.04721017    0.08850000    0.02700000
opls_146-284    H    0.44809994    0.23921986    0.91289000    0.02700000
opls_525-285    H    0.90079011    0.49959000    0.00450000    0.04580000
opls_526-286    H    0.90233996    0.38715988    0.00476000    0.04580000
opls_526-287    H    0.09948987    0.39007022    0.00579000    0.04580000
opls_525-288    H    0.09783989    0.50252979    0.00577000    0.04580000
opls_146-289    H    0.09694015    0.58997010    0.90412000    0.02700000
opls_146-290    H    0.09257011    0.68096000    0.08440000    0.02700000
opls_146-291    H    0.90038010    0.58941014    0.91062000    0.02700000
opls_140-292    H    0.61397998    0.24611018    0.03175000    -0.12310000
opls_140-293    H    0.54465999    0.29371993    0.04372000    0.09320000
opls_144-294    H    0.88400988    0.75048022    0.07379000    0.10490000
opls_140-295    H    0.43392017    0.73963983    0.40679000    0.09320000
opls_144-296    H    0.15282019    0.30715988    0.46776000    0.10490000
opls_525-297    H    0.64193993    0.75929008    0.50617000    0.04580000
opls_526-298    H    0.75427989    0.76050016    0.50571000    0.04580000
opls_526-299    H    0.75204005    0.95765007    0.50802000    0.04580000
opls_525-300    H    0.63960993    0.95641009    0.50872000    0.04580000
opls_547-301    H    0.78300005    0.99012006    0.50422000    0.04590000
opls_547-302    H    0.78266978    0.72580981    0.50072000    0.04580000
opls_547-303    H    0.86764010    0.64076020    0.49059000    0.04580000
opls_547-304    H    0.13207992    0.64072985    0.49330000    0.04580000
opls_547-305    H    0.21712001    0.72562996    0.50339000    0.04580000
opls_547-306    H    0.86804014    0.07516015    0.49937000    0.04580000
opls_547-307    H    0.21726000    0.98973995    0.50882000    0.04580000
opls_547-308    H    0.13241018    0.07494994    0.50380000    0.04580000
opls_526-309    H    0.24808997    0.75838989    0.50616000    0.04580000
opls_144-310    H    0.36043990    0.75959996    0.50567000    -0.10560000
opls_525-311    H    0.35820006    0.95675984    0.50798000    0.04580000
opls_526-312    H    0.24575001    0.95549993    0.50871000    0.04580000
opls_146-313    H    0.55166991    0.95736012    0.40766000    0.02700000
opls_146-314    H    0.46100983    0.95278983    0.58850000    0.02700000
opls_146-315    H    0.55190006    0.76078014    0.41289000    0.02700000
opls_525-316    H    0.09920989    0.50041000    0.50450000    0.04580000
opls_526-317    H    0.09766004    0.61284012    0.50476000    0.04580000
opls_526-318    H    0.90051013    0.60992978    0.50579000    0.04580000
opls_525-319    H    0.90216011    0.49747021    0.50577000    0.04580000
opls_146-320    H    0.90305985    0.41002990    0.40412000    0.02700000
opls_146-321    H    0.90742989    0.31904000    0.58440000    0.02700000
opls_146-322    H    0.09961990    0.41058986    0.41062000    0.02700000
opls_140-323    H    0.38602002    0.75388982    0.53175000    -0.12310000
opls_140-324    H    0.45534001    0.70628007    0.54372000    0.09320000
opls_144-325    H    0.11599012    0.24951978    0.57379000    0.10490000
opls_140-326    H    0.73963983    0.56607983    0.15679000    0.09320000
opls_144-327    H    0.30715988    0.84717981    0.21776000    0.10490000
opls_525-328    H    0.75929008    0.35806007    0.25617000    0.04580000
opls_526-329    H    0.76050016    0.24572011    0.25571000    0.04580000
opls_526-330    H    0.95765007    0.24795995    0.25802000    0.04580000
opls_525-331    H    0.95641009    0.36039007    0.25872000    0.04580000
opls_547-332    H    0.99012006    0.21699995    0.25422000    0.04580000
opls_547-333    H    0.72580981    0.21733022    0.25072000    0.04580000
opls_547-334    H    0.64076020    0.13235990    0.24059000    0.04580000
opls_547-335    H    0.64072985    0.86792008    0.24330000    0.04580000
opls_547-336    H    0.72562996    0.78287999    0.25339000    0.04580000
opls_547-337    H    0.07516015    0.13195986    0.24937000    0.04580000
opls_547-338    H    0.98973995    0.78274000    0.25882000    0.04580000
opls_547-339    H    0.07494994    0.86758982    0.25380000    0.04580000
opls_526-340    H    0.75838989    0.75191003    0.25616000    0.04580000
opls_144-341    H    0.75959996    0.63956010    0.25567000    -0.10560000
opls_525-342    H    0.95675984    0.64179994    0.25798000    0.04580000
opls_526-343    H    0.95549993    0.75424999    0.25871000    0.04580000
opls_146-344    H    0.95736012    0.44833009    0.15766000    0.02700000
opls_146-345    H    0.95278983    0.53899017    0.33850000    0.02700000
opls_146-346    H    0.76078014    0.44809994    0.16289000    0.02700000
opls_525-347    H    0.50041000    0.90079011    0.25450000    0.04580000
opls_526-348    H    0.61284012    0.90233996    0.25476000    0.04580000
opls_526-349    H    0.60992978    0.09948987    0.25579000    0.04580000
opls_525-350    H    0.49747021    0.09783989    0.25577000    0.04580000
opls_146-351    H    0.41002990    0.09694015    0.15412000    0.02700000
opls_146-352    H    0.31904000    0.09257011    0.33440000    0.02700000
opls_146-353    H    0.41058986    0.90038010    0.16062000    0.02700000
opls_140-354    H    0.75388982    0.61397998    0.28175000    -0.12310000
opls_140-355    H    0.70628007    0.54465999    0.29372000    0.09320000
opls_144-356    H    0.24951978    0.88400988    0.32379000    0.10490000
opls_140-357    H    0.26036017    0.43392017    0.65679000    0.09320000
opls_144-358    H    0.69284012    0.15282019    0.71776000    0.10490000
opls_525-359    H    0.24070992    0.64193993    0.75617000    0.04580000
opls_526-360    H    0.23949984    0.75427989    0.75571000    0.04580000
opls_526-361    H    0.04234993    0.75204005    0.75802000    0.04580000
opls_525-362    H    0.04358991    0.63960993    0.75872000    0.04580000
opls_547-363    H    0.00987994    0.78300005    0.75422000    0.04580000
opls_547-364    H    0.27419019    0.78266978    0.75072000    0.04580000
opls_547-365    H    0.35923980    0.86764010    0.74059000    0.04580000
opls_547-366    H    0.35927015    0.13207992    0.74330000    0.04580000
opls_547-367    H    0.27437004    0.21712001    0.75339000    0.04580000
opls_547-368    H    0.92483985    0.86804014    0.74937000    0.04580000
opls_547-369    H    0.01026005    0.21726000    0.75882000    0.04580000
opls_547-370    H    0.92505006    0.13241018    0.75380000    0.04580000
opls_526-371    H    0.24161011    0.24808997    0.75616000    0.04580000
opls_144-372    H    0.24040004    0.36043990    0.75567000    -0.10560000
opls_525-373    H    0.04324016    0.35820006    0.75798000    0.04580000
opls_526-374    H    0.04450007    0.24575001    0.75871000    0.04580000
opls_146-375    H    0.04263988    0.55166991    0.65766000    0.02700000
opls_146-376    H    0.04721017    0.46100983    0.83850000    0.02700000
opls_146-377    H    0.23921986    0.55190006    0.66289000    0.02700000
opls_525-378    H    0.49959000    0.09920989    0.75450000    0.04580000
opls_526-379    H    0.38715988    0.09766004    0.75476000    0.04580000
opls_526-380    H    0.39007022    0.90051013    0.75579000    0.04580000
opls_525-381    H    0.50252979    0.90216011    0.75577000    0.04580000
opls_146-382    H    0.58997010    0.90305985    0.65412000    0.02700000
opls_146-383    H    0.68096000    0.90742989    0.83440000    0.02700000
opls_146-384    H    0.58941014    0.09961990    0.66062000    0.02700000
opls_140-385    H    0.24611018    0.38602002    0.78175000    -0.12310000
opls_140-386    H    0.29371993    0.45534001    0.79372000    0.09320000
opls_144-387    H    0.75048022    0.11599012    0.82379000    0.10490000
