#======================================================================
# Crystal Data Generated By AuToFF
#----------------------------------------------------------------------

data_AuToFF_phase_1

_cell_length_a                         28.7810
_cell_length_b                         28.7810
_cell_length_c                         7.1910
_cell_angle_alpha                      90.00
_cell_angle_beta                       90.00
_cell_angle_gamma                      120.00
_symmetry_space_group_name_H-M_alt     'P 1'
_symmetry_space_group_IT_number        1

loop_
_space_group_symop_operation_xyz
   'x, y, z'

loop_
   _atom_site_label
   _atom_site_type_symbol
   _atom_site_fract_x
   _atom_site_fract_y
   _atom_site_fract_z
   _atom_site_charge
opls_145-0    C    0.05739023    0.03008014    0.25000000    -0.11250000
opls_280-1    C    0.02793987    0.05791997    0.25000000    0.25660000
opls_142-2    C    0.10892997    0.05409010    0.25000000    0.10150000
opls_916-3    C    0.19932006    0.12735004    0.25000000    0.15800000
opls_145-4    C    0.21757012    0.09007995    0.25000000    -0.22240000
opls_145-5    C    0.26904984    0.10592985    0.25000000    -0.21480000
opls_700-6    C    0.30582996    0.15959989    0.25000000    0.07930000
opls_145-7    C    0.28875998    0.19821000    0.25000000    -0.10720000
opls_260-8    C    0.23550984    0.18207003    0.25000000    -0.00700000
opls_261-9    C    0.21936985    0.22231985    0.25000000    0.20310000
opls_145-10    C    0.60928004    0.30324998    0.25000000    -0.11250000
opls_280-11    C    0.63873006    0.27541015    0.25000000    0.25660000
opls_142-12    C    0.55773995    0.27924003    0.25000000    0.10150000
opls_916-13    C    0.46735021    0.20598008    0.25000000    0.15780000
opls_145-14    C    0.44909008    0.24325017    0.25000000    -0.22250000
opls_145-15    C    0.39760981    0.22739987    0.25000000    -0.21480000
opls_700-16    C    0.36083003    0.17372983    0.25000000    0.07930000
opls_145-17    C    0.37790995    0.13512013    0.25000000    -0.10720000
opls_260-18    C    0.43115001    0.15126010    0.25000000    -0.00700000
opls_261-19    C    0.44729987    0.11100987    0.25000000    0.20310000
opls_145-20    C    0.96991982    0.02730984    0.25000000    -0.11250000
opls_280-21    C    0.94207982    0.97001976    0.25000000    0.25660000
opls_142-22    C    0.94590995    0.05483994    0.25000000    0.10150000
opls_916-23    C    0.87265020    0.07197008    0.25000000    0.15800000
opls_145-24    C    0.90991994    0.12749006    0.25000000    -0.22240000
opls_145-25    C    0.89407001    0.16312004    0.25000000    -0.21480000
opls_700-26    C    0.84039993    0.14622982    0.25000000    0.07930000
opls_145-27    C    0.80179014    0.09055016    0.25000000    -0.10720000
opls_260-28    C    0.81793025    0.05344015    0.25000000    -0.00700000
opls_261-29    C    0.77767998    0.99704996    0.25000000    0.20310000
opls_145-30    C    0.69675006    0.30602991    0.25000000    -0.11250000
opls_280-31    C    0.72459006    0.36332000    0.25000000    0.25660000
opls_142-32    C    0.72075993    0.27849981    0.25000000    0.10150000
opls_916-33    C    0.79401988    0.26137007    0.25000000    0.15780000
opls_145-34    C    0.75674999    0.20584006    0.25000000    -0.22250000
opls_145-35    C    0.77259992    0.17021009    0.25000000    -0.21480000
opls_700-36    C    0.82626980    0.18709990    0.25000000    0.07930000
opls_145-37    C    0.86487993    0.24278999    0.25000000    -0.10720000
opls_260-38    C    0.84874003    0.27988997    0.25000000    -0.00700000
opls_261-39    C    0.88898990    0.33628979    0.25000000    0.20310000
opls_145-40    C    0.97268995    0.94261001    0.25000000    -0.11250000
opls_280-41    C    0.02997976    0.97205987    0.25000000    0.25660000
opls_142-42    C    0.94516008    0.89106996    0.25000000    0.10150000
opls_916-43    C    0.92803008    0.80067988    0.25000000    0.15800000
opls_145-44    C    0.87250994    0.78242999    0.25000000    -0.22240000
opls_145-45    C    0.83688015    0.73095011    0.25000000    -0.21480000
opls_700-46    C    0.85376991    0.69416989    0.25000000    0.07930000
opls_145-47    C    0.90944988    0.71123984    0.25000000    -0.10720000
opls_260-48    C    0.94655991    0.76448982    0.25000000    -0.00700000
opls_261-49    C    0.00294997    0.78062979    0.25000000    0.20310000
opls_145-50    C    0.69396990    0.39072011    0.25000000    -0.11250000
opls_280-51    C    0.63667989    0.36126985    0.25000000    0.25660000
opls_142-52    C    0.72149992    0.44225976    0.25000000    0.10150000
opls_916-53    C    0.73862992    0.53264985    0.25000000    0.15780000
opls_145-54    C    0.79415993    0.55090977    0.25000000    -0.22250000
opls_145-55    C    0.82978993    0.60239004    0.25000000    -0.21480000
opls_700-56    C    0.81289997    0.63916986    0.25000000    0.07930000
opls_145-57    C    0.75720977    0.62208988    0.25000000    -0.10720000
opls_260-58    C    0.72010997    0.56884993    0.25000000    -0.00700000
opls_261-59    C    0.66371003    0.55269993    0.25000000    0.20310000
opls_145-60    C    0.94260977    0.96991986    0.75000000    -0.11250000
opls_280-61    C    0.97206013    0.94208003    0.75000000    0.25660000
opls_142-62    C    0.89107003    0.94590990    0.75000000    0.10150000
opls_916-63    C    0.80067994    0.87264996    0.75000000    0.15800000
opls_145-64    C    0.78242988    0.90992005    0.75000000    -0.22240000
opls_145-65    C    0.73094996    0.89406975    0.75000000    -0.21480000
opls_700-66    C    0.69416984    0.84039971    0.75000000    0.07930000
opls_145-67    C    0.71124002    0.80179000    0.75000000    -0.10720000
opls_260-68    C    0.76449016    0.81792997    0.75000000    -0.00700000
opls_261-69    C    0.78062995    0.77767975    0.75000000    0.20310000
opls_145-70    C    0.39071996    0.69675002    0.75000000    -0.11250000
opls_280-71    C    0.36126994    0.72458985    0.75000000    0.25660000
opls_142-72    C    0.44226005    0.72075997    0.75000000    0.10150000
opls_916-73    C    0.53264979    0.79401992    0.75000000    0.15780000
opls_145-74    C    0.55090992    0.75674983    0.75000000    -0.22250000
opls_145-75    C    0.60238999    0.77259973    0.75000000    -0.21480000
opls_700-76    C    0.63916977    0.82626977    0.75000000    0.07930000
opls_145-77    C    0.62209005    0.86487987    0.75000000    -0.10720000
opls_260-78    C    0.56884999    0.84873990    0.75000000    -0.00700000
opls_261-79    C    0.55269993    0.88898972    0.75000000    0.20310000
opls_145-80    C    0.03007998    0.97268976    0.75000000    -0.11250000
opls_280-81    C    0.05791998    0.02997984    0.75000000    0.25660000
opls_142-82    C    0.05409005    0.94516006    0.75000000    0.10150000
opls_916-83    C    0.12734980    0.92802992    0.75000000    0.15800000
opls_145-84    C    0.09008006    0.87250994    0.75000000    -0.22240000
opls_145-85    C    0.10592999    0.83687996    0.75000000    -0.21480000
opls_700-86    C    0.15959987    0.85376978    0.75000000    0.07930000
opls_145-87    C    0.19820986    0.90944984    0.75000000    -0.10720000
opls_260-88    C    0.18206975    0.94655985    0.75000000    -0.00700000
opls_261-89    C    0.22232002    0.00295004    0.75000000    0.20310000
opls_145-90    C    0.30324994    0.69397009    0.75000000    -0.11250000
opls_280-91    C    0.27540994    0.63668000    0.75000000    0.25660000
opls_142-92    C    0.27923987    0.72149979    0.75000000    0.10150000
opls_916-93    C    0.20598012    0.73862993    0.75000000    0.15780000
opls_145-94    C    0.24325001    0.79415994    0.75000000    -0.22250000
opls_145-95    C    0.22740008    0.82978991    0.75000000    -0.21480000
opls_700-96    C    0.17373020    0.81290010    0.75000000    0.07930000
opls_145-97    C    0.13512007    0.75721001    0.75000000    -0.10720000
opls_260-98    C    0.15125997    0.72011003    0.75000000    -0.00700000
opls_261-99    C    0.11100990    0.66370981    0.75000000    0.20310000
opls_145-100    C    0.02731005    0.05738999    0.75000000    -0.11250000
opls_280-101    C    0.97002024    0.02794013    0.75000000    0.25660000
opls_142-102    C    0.05483992    0.10893004    0.75000000    0.10150000
opls_916-103    C    0.07196992    0.19932012    0.75000000    0.15800000
opls_145-104    C    0.12749006    0.21757001    0.75000000    -0.22240000
opls_145-105    C    0.16311985    0.26904989    0.75000000    -0.21480000
opls_700-106    C    0.14623009    0.30583011    0.75000000    0.07930000
opls_145-107    C    0.09055012    0.28876016    0.75000000    -0.10720000
opls_260-108    C    0.05343989    0.23550978    0.75000000    -0.00700000
opls_261-109    C    0.99704983    0.21936981    0.75000000    0.20310000
opls_145-110    C    0.30603010    0.60927989    0.75000000    -0.11250000
opls_280-111    C    0.36331991    0.63872975    0.75000000    0.25660000
opls_142-112    C    0.27849988    0.55773983    0.75000000    0.10150000
opls_916-113    C    0.26136988    0.46734975    0.75000000    0.15780000
opls_145-114    C    0.20583987    0.44908983    0.75000000    -0.22260000
opls_145-115    C    0.17021007    0.39760996    0.75000000    -0.21480000
opls_700-116    C    0.18710003    0.36083014    0.75000000    0.07930000
opls_145-117    C    0.24279023    0.37791012    0.75000000    -0.10720000
opls_260-118    C    0.27989003    0.43115007    0.75000000    -0.00700000
opls_261-119    C    0.33628997    0.44730007    0.75000000    0.20310000
opls_281-120    O    0.05066994    0.10671982    0.25000000    -0.40150000
opls_281-121    O    0.61599979    0.22660990    0.25000000    -0.40150000
opls_281-122    O    0.89328004    0.94395003    0.25000000    -0.40150000
opls_281-123    O    0.77339003    0.38939012    0.25000000    -0.40150000
opls_281-124    O    0.05604982    0.94932975    0.25000000    -0.40150000
opls_281-125    O    0.61060983    0.38399997    0.25000000    -0.40150000
opls_281-126    O    0.94932986    0.89327978    0.75000000    -0.40150000
opls_281-127    O    0.38400021    0.77339010    0.75000000    -0.40150000
opls_281-128    O    0.10671996    0.05604997    0.75000000    -0.40150000
opls_281-129    O    0.22660997    0.61060988    0.75000000    -0.40150000
opls_281-130    O    0.94394998    0.05066985    0.75000000    -0.40170000
opls_281-131    O    0.38939017    0.61600003    0.75000000    -0.40150000
opls_238-132    N    0.14462003    0.10980988    0.25000000    -0.24940000
opls_262-133    N    0.20660002    0.25458013    0.25000000    -0.34550000
opls_238-134    N    0.52204985    0.22352987    0.25000000    -0.24940000
opls_262-135    N    0.46007005    0.07876003    0.25000000    -0.34550000
opls_238-136    N    0.89019013    0.03480992    0.25000000    -0.24940000
opls_262-137    N    0.74541993    0.95201981    0.25000000    -0.34560000
opls_238-138    N    0.77646987    0.29851980    0.25000000    -0.24940000
opls_262-139    N    0.92124006    0.38130991    0.25000000    -0.34550000
opls_238-140    N    0.96518999    0.85537980    0.25000000    -0.24940000
opls_262-141    N    0.04798004    0.79340006    0.25000000    -0.34550000
opls_238-142    N    0.70148009    0.47794992    0.25000000    -0.24940000
opls_262-143    N    0.61868988    0.53993006    0.25000000    -0.34560000
opls_238-144    N    0.85537977    0.89018972    0.75000000    -0.24940000
opls_262-145    N    0.79339998    0.74541987    0.75000000    -0.34550000
opls_238-146    N    0.47794995    0.77646972    0.75000000    -0.24940000
opls_262-147    N    0.53992995    0.92123997    0.75000000    -0.34550000
opls_238-148    N    0.10980987    0.96519008    0.75000000    -0.24940000
opls_262-149    N    0.25458007    0.04798019    0.75000000    -0.34550000
opls_238-150    N    0.22352993    0.70147979    0.75000000    -0.24940000
opls_262-151    N    0.07875994    0.61869009    0.75000000    -0.34550000
opls_238-152    N    0.03480981    0.14461980    0.75000000    -0.24950000
opls_262-153    N    0.95201996    0.20659994    0.75000000    -0.34550000
opls_238-154    N    0.29851991    0.52205008    0.75000000    -0.24940000
opls_262-155    N    0.38131012    0.46006994    0.75000000    -0.34550000
opls_144-156    H    0.12366983    0.02773993    0.25000000    0.10500000
opls_910-157    H    0.13369982    0.13901981    0.25000000    0.25590000
opls_146-158    H    0.19596989    0.04719985    0.25000000    0.21520000
opls_146-159    H    0.27746983    0.07364991    0.25000000    0.21380000
opls_146-160    H    0.31420007    0.24095008    0.25000000    0.08340000
opls_144-161    H    0.54299989    0.30558979    0.25000000    0.10500000
opls_910-162    H    0.53295983    0.19430991    0.25000000    0.23330000
opls_146-163    H    0.47069011    0.28612987    0.25000000    0.21520000
opls_146-164    H    0.38919990    0.25967981    0.25000000    0.21380000
opls_146-165    H    0.35246986    0.09238004    0.25000000    0.08340000
opls_144-166    H    0.97225979    0.09592988    0.25000000    0.10500000
opls_910-167    H    0.86097993    0.99468006    0.25000000    0.25590000
opls_146-168    H    0.95279984    0.14876983    0.25000000    0.21520000
opls_146-169    H    0.92635009    0.20382001    0.25000000    0.21380000
opls_146-170    H    0.75904982    0.07324992    0.25000000    0.08340000
opls_144-171    H    0.69441009    0.23740987    0.25000000    0.10500000
opls_910-172    H    0.80569000    0.33865007    0.25000000    0.23330000
opls_146-173    H    0.71386988    0.18455989    0.25000000    0.21520000
opls_146-174    H    0.74031999    0.12952015    0.25000000    0.21380000
opls_146-175    H    0.90762005    0.26008984    0.25000000    0.08340000
opls_144-176    H    0.90406983    0.87632979    0.25000000    0.10500000
opls_910-177    H    0.00531970    0.86629973    0.25000000    0.25590000
opls_146-178    H    0.85123007    0.80402992    0.25000000    0.21520000
opls_146-179    H    0.79618009    0.72253008    0.25000000    0.21380000
opls_146-180    H    0.92675011    0.68580001    0.25000000    0.08340000
opls_144-181    H    0.76258982    0.45699994    0.25000000    0.10500000
opls_910-182    H    0.66135018    0.46704003    0.25000000    0.23330000
opls_146-183    H    0.81543981    0.52930984    0.25000000    0.21520000
opls_146-184    H    0.87048011    0.61080005    0.25000000    0.21380000
opls_146-185    H    0.73991009    0.64753012    0.25000000    0.08340000
opls_144-186    H    0.87633017    0.97226007    0.75000000    0.10500000
opls_910-187    H    0.86629998    0.86097978    0.75000000    0.25590000
opls_146-188    H    0.80402991    0.95279975    0.75000000    0.21520000
opls_146-189    H    0.72253017    0.92635009    0.75000000    0.21380000
opls_146-190    H    0.68579993    0.75904992    0.75000000    0.08340000
opls_144-191    H    0.45699991    0.69440981    0.75000000    0.10500000
opls_910-192    H    0.46704017    0.80569009    0.75000000    0.23330000
opls_146-193    H    0.52930969    0.71386972    0.75000000    0.21520000
opls_146-194    H    0.61079990    0.74031979    0.75000000    0.21380000
opls_146-195    H    0.64753014    0.90761996    0.75000000    0.08340000
opls_144-196    H    0.02774001    0.90406972    0.75000000    0.10500000
opls_910-197    H    0.13902007    0.00531994    0.75000000    0.25590000
opls_146-198    H    0.04719996    0.85122977    0.75000000    0.21520000
opls_146-199    H    0.07364991    0.79617999    0.75000000    0.21380000
opls_146-200    H    0.24095018    0.92675008    0.75000000    0.08340000
opls_144-201    H    0.30558971    0.76258973    0.75000000    0.10500000
opls_910-202    H    0.19431000    0.66134993    0.75000000    0.23330000
opls_146-203    H    0.28612992    0.81543971    0.75000000    0.21520000
opls_146-204    H    0.25968001    0.87047985    0.75000000    0.21380000
opls_146-205    H    0.09237974    0.73990976    0.75000000    0.08340000
opls_144-206    H    0.09592997    0.12366981    0.75000000    0.10500000
opls_910-207    H    0.99468010    0.13369987    0.75000000    0.25590000
opls_146-208    H    0.14876993    0.19597008    0.75000000    0.21520000
opls_146-209    H    0.20381991    0.27746992    0.75000000    0.21380000
opls_146-210    H    0.07324989    0.31419999    0.75000000    0.08340000
opls_144-211    H    0.23741018    0.54300006    0.75000000    0.10500000
opls_910-212    H    0.33864982    0.53295997    0.75000000    0.23330000
opls_146-213    H    0.18455999    0.47068976    0.75000000    0.21520000
opls_146-214    H    0.12951989    0.38919995    0.75000000    0.21380000
opls_146-215    H    0.26008991    0.35246988    0.75000000    0.08340000
