#======================================================================
# Crystal Data Generated By AuToFF
#----------------------------------------------------------------------

data_AuToFF_phase_1

_cell_length_a                         43.9841
_cell_length_b                         43.9841
_cell_length_c                         3.6324
_cell_angle_alpha                      90.00
_cell_angle_beta                       90.00
_cell_angle_gamma                      120.00
_symmetry_space_group_name_H-M_alt     'P 1'
_symmetry_space_group_IT_number        1

loop_
_space_group_symop_operation_xyz
   'x, y, z'

loop_
   _atom_site_label
   _atom_site_type_symbol
   _atom_site_fract_x
   _atom_site_fract_y
   _atom_site_fract_z
   _atom_site_charge
opls_145-0    C    0.35099009    0.70157004    0.56540029    0.04190000
opls_145-1    C    0.36799006    0.68378989    0.56516078    -0.10910000
opls_145-2    C    0.35202997    0.59436985    0.62617003    -0.09980000
opls_145-3    C    0.36959987    0.57616992    0.61508094    -0.10280000
opls_145-4    C    0.40470003    0.59298003    0.52952869    0.12700000
opls_145-5    C    0.42209992    0.62844005    0.47278108    -0.11340000
opls_145-6    C    0.40463008    0.64672006    0.48598998    -0.09800000
opls_700-7    C    0.36930006    0.62981989    0.55937121    0.10400000
opls_700-8    C    0.41388987    0.54127984    0.41432937    0.05620000
opls_423-9    C    0.38050003    0.52043994    0.26902874    0.23360000
opls_142-10    C    0.42479003    0.57525002    0.51350897    -0.06630000
opls_145-11    C    0.43004995    0.49576006    0.29463991    -0.10220000
opls_145-12    C    0.45375008    0.48440000    0.29881070    -0.09440000
opls_700-13    C    0.48738991    0.50597997    0.42076038    0.10390000
opls_145-14    C    0.49682011    0.53911006    0.54082975    -0.10000000
opls_145-15    C    0.47305993    0.55039005    0.54131979    -0.10310000
opls_700-16    C    0.43919000    0.52892008    0.41791102    0.10300000
opls_145-17    C    0.29842999    0.64941988    0.56540029    0.04190000
opls_145-18    C    0.31620994    0.68419996    0.56516078    -0.10910000
opls_145-19    C    0.40562988    0.75765994    0.62617003    -0.09980000
opls_145-20    C    0.42383003    0.79343000    0.61508094    -0.10290000
opls_145-21    C    0.40701996    0.81171998    0.52952869    0.12700000
opls_145-22    C    0.37155995    0.79365998    0.47278108    -0.11340000
opls_145-23    C    0.35327997    0.75790987    0.48598998    -0.09800000
opls_700-24    C    0.37017991    0.73947996    0.55937121    0.10400000
opls_700-25    C    0.45871988    0.87260992    0.41432937    0.05620000
opls_423-26    C    0.47955986    0.86005983    0.26902874    0.23350000
opls_142-27    C    0.42474992    0.84953986    0.51350897    -0.06630000
opls_145-28    C    0.50424003    0.93429007    0.29463991    -0.10220000
opls_145-29    C    0.51560004    0.96935000    0.29881070    -0.09450000
opls_700-30    C    0.49402004    0.98140995    0.42076038    0.10390000
opls_145-31    C    0.46089001    0.95770982    0.54082975    -0.10000000
opls_145-32    C    0.44961000    0.92266984    0.54131979    -0.10310000
opls_700-33    C    0.47108004    0.91026992    0.41791102    0.10300000
opls_145-34    C    0.35058014    0.64901008    0.56540029    0.04190000
opls_145-35    C    0.31579987    0.63200989    0.56516078    -0.10910000
opls_145-36    C    0.24234001    0.64796995    0.62617003    -0.09980000
opls_145-37    C    0.20657010    0.63040008    0.61508094    -0.10290000
opls_145-38    C    0.18828001    0.59529998    0.52952869    0.12700000
opls_145-39    C    0.20633991    0.57789997    0.47278108    -0.11340000
opls_145-40    C    0.24208995    0.59537008    0.48598998    -0.09600000
opls_700-41    C    0.26051990    0.63069988    0.55937121    0.10400000
opls_700-42    C    0.12738989    0.58610997    0.41432937    0.05620000
opls_423-43    C    0.13993998    0.61949997    0.26902874    0.23350000
opls_142-44    C    0.15045991    0.57520986    0.51350897    -0.06630000
opls_145-45    C    0.06571002    0.56994987    0.29463991    -0.10220000
opls_145-46    C    0.03065011    0.54625000    0.29881070    -0.09800000
opls_700-47    C    0.01859005    0.51261008    0.42076038    0.10390000
opls_145-48    C    0.04228998    0.50317986    0.54082975    -0.10000000
opls_145-49    C    0.07732993    0.52693984    0.54131979    -0.10310000
opls_700-50    C    0.08972996    0.56081000    0.41791102    0.10300000
opls_145-51    C    0.64900991    0.29842996    0.56540029    0.04190000
opls_145-52    C    0.63200994    0.31621011    0.56516078    -0.10910000
opls_145-53    C    0.64796990    0.40562989    0.62617003    -0.09980000
opls_145-54    C    0.63040013    0.42383008    0.61508094    -0.10290000
opls_145-55    C    0.59529997    0.40701997    0.52952869    0.12710000
opls_145-56    C    0.57790008    0.37155995    0.47278108    -0.11340000
opls_145-57    C    0.59536992    0.35327994    0.48598998    -0.09800000
opls_700-58    C    0.63069994    0.37018011    0.55937121    0.10400000
opls_700-59    C    0.58611000    0.45871989    0.41432937    0.05620000
opls_423-60    C    0.61949997    0.47956006    0.26902874    0.23360000
opls_142-61    C    0.57520997    0.42474998    0.51350897    -0.06630000
opls_145-62    C    0.56995005    0.50423994    0.29463991    -0.10210000
opls_145-63    C    0.54624992    0.51560000    0.29881070    -0.09450000
opls_700-64    C    0.51261009    0.49402003    0.42076038    0.10390000
opls_145-65    C    0.50317989    0.46088994    0.54082975    -0.10000000
opls_145-66    C    0.52694007    0.44960995    0.54131979    -0.10310000
opls_700-67    C    0.56081000    0.47107992    0.41791102    0.10300000
opls_145-68    C    0.70156988    0.35057986    0.56540029    0.04190000
opls_145-69    C    0.68379006    0.31580004    0.56516078    -0.10910000
opls_145-70    C    0.59437012    0.24234006    0.62617003    -0.09980000
opls_145-71    C    0.57616997    0.20657000    0.61508094    -0.10290000
opls_145-72    C    0.59298004    0.18828002    0.52952869    0.12700000
opls_145-73    C    0.62844005    0.20634002    0.47278108    -0.11340000
opls_145-74    C    0.64671990    0.24208987    0.48598998    -0.09800000
opls_700-75    C    0.62982009    0.26052004    0.55937121    0.10400000
opls_700-76    C    0.54128012    0.12739008    0.41432937    0.05630000
opls_423-77    C    0.52044001    0.13993991    0.26902874    0.23350000
opls_142-78    C    0.57524995    0.15045988    0.51350897    -0.06610000
opls_145-79    C    0.49575997    0.06570993    0.29463991    -0.10220000
opls_145-80    C    0.48439996    0.03065000    0.29881070    -0.09450000
opls_700-81    C    0.50597996    0.01859005    0.42076038    0.10400000
opls_145-82    C    0.53910986    0.04228992    0.54082975    -0.10000000
opls_145-83    C    0.55038987    0.07732989    0.54131979    -0.10310000
opls_700-84    C    0.52891996    0.08973008    0.41791102    0.10300000
opls_145-85    C    0.64941986    0.35098992    0.56540029    0.04190000
opls_145-86    C    0.68420013    0.36799011    0.56516078    -0.10910000
opls_145-87    C    0.75765999    0.35203005    0.62617003    -0.09970000
opls_145-88    C    0.79342990    0.36959992    0.61508094    -0.10290000
opls_145-89    C    0.81171999    0.40470002    0.52952869    0.12700000
opls_145-90    C    0.79366009    0.42210003    0.47278108    -0.11340000
opls_145-91    C    0.75791005    0.40462992    0.48598998    -0.09600000
opls_700-92    C    0.73947997    0.36929985    0.55937121    0.10400000
opls_700-93    C    0.87261011    0.41389003    0.41432937    0.05630000
opls_423-94    C    0.86006002    0.38050003    0.26902874    0.23350000
opls_142-95    C    0.84953995    0.42478988    0.51350897    -0.06630000
opls_145-96    C    0.93428985    0.43004987    0.29463991    -0.10220000
opls_145-97    C    0.96934989    0.45375000    0.29881070    -0.09980000
opls_700-98    C    0.98140995    0.48738992    0.42076038    0.10390000
opls_145-99    C    0.95770989    0.49681988    0.54082975    -0.10000000
opls_145-100    C    0.92266994    0.47305989    0.54131979    -0.10310000
opls_700-101    C    0.91027004    0.43919000    0.41791102    0.10300000
opls_146-102    H    0.32275992    0.58013985    0.69133906    0.04730000
opls_146-103    H    0.35514995    0.54682992    0.67702896    0.04730000
opls_146-104    H    0.45148997    0.64299008    0.41375124    0.04740000
opls_146-105    H    0.41936996    0.67625983    0.43589913    0.04730000
opls_146-106    H    0.40229001    0.47779010    0.18839060    0.04730000
opls_146-107    H    0.44568017    0.45677011    0.20044874    0.04730000
opls_146-108    H    0.52472000    0.55743994    0.64123995    0.04730000
opls_146-109    H    0.48106013    0.57787004    0.64451878    0.04730000
opls_146-110    H    0.39792009    0.69841998    0.56473957    0.04730000
opls_144-111    H    0.45380994    0.58990007    0.59002037    0.04730000
opls_146-112    H    0.41986007    0.74262004    0.69133906    0.04730000
opls_146-113    H    0.45316998    0.80832000    0.67702896    0.04730000
opls_146-114    H    0.35700989    0.80849983    0.41375124    0.04730000
opls_146-115    H    0.32373997    0.74309994    0.43589913    0.04730000
opls_146-116    H    0.52221004    0.92449992    0.18839060    0.04730000
opls_146-117    H    0.54322992    0.98892006    0.20044874    0.04730000
opls_146-118    H    0.44255991    0.96727997    0.64123995    0.04730000
opls_146-119    H    0.42212995    0.90318983    0.64451878    0.04730000
opls_146-120    H    0.30158010    0.69950002    0.56473957    0.04730000
opls_144-121    H    0.41010008    0.86391005    0.59002037    0.04730000
opls_146-122    H    0.25737988    0.67723985    0.69133906    0.04730000
opls_146-123    H    0.19168007    0.64485008    0.67702896    0.04730000
opls_146-124    H    0.19150014    0.54851009    0.41375124    0.04740000
opls_146-125    H    0.25689996    0.58062999    0.43589913    0.04680000
opls_146-126    H    0.07549996    0.59770998    0.18839060    0.04730000
opls_146-127    H    0.01108002    0.55432008    0.20044874    0.04680000
opls_146-128    H    0.03272008    0.47528008    0.64123995    0.04740000
opls_146-129    H    0.09681002    0.51893986    0.64451878    0.04730000
opls_146-130    H    0.30050003    0.60208000    0.56473957    0.04730000
opls_144-131    H    0.13608998    0.54618988    0.59002037    0.04730000
opls_146-132    H    0.67723995    0.41985989    0.69133906    0.04730000
opls_146-133    H    0.64485005    0.45317008    0.67702896    0.04730000
opls_146-134    H    0.54851003    0.35700992    0.41375124    0.04730000
opls_146-135    H    0.58062991    0.32373990    0.43589913    0.04730000
opls_146-136    H    0.59770999    0.52220990    0.18839060    0.04730000
opls_146-137    H    0.55431983    0.54322989    0.20044874    0.04730000
opls_146-138    H    0.47528000    0.44256006    0.64123995    0.04730000
opls_146-139    H    0.51893987    0.42212996    0.64451878    0.04730000
opls_146-140    H    0.60207991    0.30158002    0.56473957    0.04730000
opls_144-141    H    0.54619006    0.41009993    0.59002037    0.04740000
opls_146-142    H    0.58013993    0.25737996    0.69133906    0.04730000
opls_146-143    H    0.54683002    0.19168000    0.67702896    0.04730000
opls_146-144    H    0.64298998    0.19149991    0.41375124    0.04730000
opls_146-145    H    0.67626003    0.25690006    0.43589913    0.04730000
opls_146-146    H    0.47778996    0.07550008    0.18839060    0.04730000
opls_146-147    H    0.45677008    0.01107994    0.20044874    0.04730000
opls_146-148    H    0.55744009    0.03272003    0.64123995    0.04730000
opls_146-149    H    0.57786992    0.09680991    0.64451878    0.04730000
opls_146-150    H    0.69841990    0.30049998    0.56473957    0.04730000
opls_144-151    H    0.58989992    0.13608995    0.59002037    0.04730000
opls_146-152    H    0.74261998    0.32275989    0.69133906    0.04730000
opls_146-153    H    0.80831993    0.35514992    0.67702896    0.04740000
opls_146-154    H    0.80849986    0.45148991    0.41375124    0.04730000
opls_146-155    H    0.74310004    0.41937001    0.43589913    0.04680000
opls_146-156    H    0.92450004    0.40229002    0.18839060    0.04730000
opls_146-157    H    0.98891998    0.44567992    0.20044874    0.04680000
opls_146-158    H    0.96727992    0.52471992    0.64123995    0.04730000
opls_146-159    H    0.90318985    0.48105987    0.64451878    0.04740000
opls_146-160    H    0.69949997    0.39792000    0.56473957    0.04730000
opls_144-161    H    0.86390989    0.45380985    0.59002037    0.04730000
opls_753-162    N    0.36020003    0.49129999    0.50747990    -0.25240000
opls_753-163    N    0.50869996    0.86889989    0.50747990    -0.25230000
opls_753-164    N    0.13109988    0.63979985    0.50747990    -0.25240000
opls_753-165    N    0.63979997    0.50870001    0.50747990    -0.25230000
opls_753-166    N    0.49130004    0.13110011    0.50747990    -0.25240000
opls_753-167    N    0.86889999    0.36019989    0.50747990    -0.25240000
