#======================================================================
# Crystal Data Generated By AuToFF
#----------------------------------------------------------------------

data_AuToFF_phase_1

_cell_length_a                         29.0899
_cell_length_b                         29.0899
_cell_length_c                         3.0207
_cell_angle_alpha                      90.00
_cell_angle_beta                       90.00
_cell_angle_gamma                      120.00
_symmetry_space_group_name_H-M_alt     'P 1'
_symmetry_space_group_IT_number        1

loop_
_space_group_symop_operation_xyz
   'x, y, z'

loop_
   _atom_site_label
   _atom_site_type_symbol
   _atom_site_fract_x
   _atom_site_fract_y
   _atom_site_fract_z
   _atom_site_charge
opls_750-0    N    0.39261024    0.58453021    0.00000000    -0.17850000
opls_750-1    N    0.41547012    0.80808007    0.00000000    -0.17850000
opls_750-2    N    0.19192018    0.60739011    0.00000000    -0.17850000
opls_750-3    N    0.60738995    0.41547018    0.00000000    -0.17850000
opls_750-4    N    0.58452988    0.19191993    0.00000000    -0.17850000
opls_750-5    N    0.80807982    0.39260989    0.00000000    -0.17850000
opls_145-6    C    0.31637983    0.61441995    0.00000000    -0.12630000
opls_142-7    C    0.40695983    0.63275987    0.00000000    0.11450000
opls_145-8    C    0.42476018    0.56216014    0.00000000    0.21810000
opls_145-9    C    0.47820006    0.59097020    0.00000000    -0.19750000
opls_145-10    C    0.50731019    0.56690003    0.00000000    -0.19190000
opls_145-11    C    0.48421998    0.51309016    0.00000000    0.07920000
opls_145-12    C    0.43027023    0.48490012    0.00000000    -0.19220000
opls_145-13    C    0.40138011    0.50916003    0.00000000    -0.19740000
opls_145-14    C    0.36893003    0.64967000    0.00000000    0.01200000
opls_145-15    C    0.38557997    0.70195998    0.00000000    -0.12630000
opls_142-16    C    0.36723998    0.77420027    0.00000000    0.11450000
opls_145-17    C    0.43784011    0.86260007    0.00000000    0.21810000
opls_145-18    C    0.40903011    0.88722994    0.00000000    -0.19750000
opls_145-19    C    0.43310015    0.94041026    0.00000000    -0.19170000
opls_145-20    C    0.48691014    0.97113000    0.00000000    0.07920000
opls_145-21    C    0.51510009    0.94537005    0.00000000    -0.19220000
opls_145-22    C    0.49083991    0.89221989    0.00000000    -0.19740000
opls_145-23    C    0.35032982    0.71925991    0.00000000    0.01200000
opls_145-24    C    0.29804020    0.68362006    0.00000000    -0.12630000
opls_142-25    C    0.22579985    0.59303986    0.00000000    0.11450000
opls_145-26    C    0.13740025    0.57524018    0.00000000    0.21810000
opls_145-27    C    0.11276982    0.52179986    0.00000000    -0.19750000
opls_145-28    C    0.05959020    0.49269011    0.00000000    -0.19170000
opls_145-29    C    0.02887008    0.51578024    0.00000000    0.07920000
opls_145-30    C    0.05463022    0.56973023    0.00000000    -0.19220000
opls_145-31    C    0.10777999    0.59862007    0.00000000    -0.19730000
opls_145-32    C    0.28074015    0.63107009    0.00000000    0.01200000
opls_145-33    C    0.68362017    0.38558005    0.00000000    -0.12630000
opls_142-34    C    0.59304017    0.36724013    0.00000000    0.11450000
opls_145-35    C    0.57523982    0.43783986    0.00000000    0.21820000
opls_145-36    C    0.52180013    0.40903019    0.00000000    -0.19740000
opls_145-37    C    0.49268981    0.43309997    0.00000000    -0.19190000
opls_145-38    C    0.51578022    0.48691024    0.00000000    0.07920000
opls_145-39    C    0.56972977    0.51509988    0.00000000    -0.19220000
opls_145-40    C    0.59861989    0.49083997    0.00000000    -0.19740000
opls_145-41    C    0.63106997    0.35033000    0.00000000    0.01200000
opls_145-42    C    0.61442003    0.29804002    0.00000000    -0.12630000
opls_142-43    C    0.63276022    0.22580013    0.00000000    0.11450000
opls_145-44    C    0.56215989    0.13739993    0.00000000    0.21810000
opls_145-45    C    0.59096989    0.11277006    0.00000000    -0.19740000
opls_145-46    C    0.56690005    0.05959014    0.00000000    -0.19170000
opls_145-47    C    0.51308986    0.02887000    0.00000000    0.07920000
opls_145-48    C    0.48489991    0.05462995    0.00000000    -0.19210000
opls_145-49    C    0.50916009    0.10778011    0.00000000    -0.19740000
opls_145-50    C    0.64967018    0.28074009    0.00000000    0.01200000
opls_145-51    C    0.70195980    0.31637994    0.00000000    -0.12620000
opls_142-52    C    0.77420015    0.40696014    0.00000000    0.11450000
opls_145-53    C    0.86259994    0.42476022    0.00000000    0.21810000
opls_145-54    C    0.88723018    0.47820014    0.00000000    -0.19750000
opls_145-55    C    0.94040980    0.50730989    0.00000000    -0.19160000
opls_145-56    C    0.97113012    0.48422016    0.00000000    0.07920000
opls_145-57    C    0.94536998    0.43027017    0.00000000    -0.19220000
opls_145-58    C    0.89222001    0.40137993    0.00000000    -0.19740000
opls_145-59    C    0.71925985    0.36892991    0.00000000    0.01200000
opls_146-60    H    0.30260003    0.57220992    0.00000000    0.11360000
opls_144-61    H    0.44825997    0.66321009    0.00000000    0.11590000
opls_146-62    H    0.49976991    0.63372007    0.00000000    0.09200000
opls_146-63    H    0.54938992    0.59368013    0.00000000    0.10710000
opls_146-64    H    0.40703996    0.44237016    0.00000000    0.10710000
opls_146-65    H    0.35844997    0.48557016    0.00000000    0.11280000
opls_146-66    H    0.42779015    0.73040009    0.00000000    0.11230000
opls_144-67    H    0.33678979    0.78504989    0.00000000    0.11590000
opls_146-68    H    0.36628014    0.86606022    0.00000000    0.09190000
opls_146-69    H    0.40632998    0.95571992    0.00000000    0.10710000
opls_146-70    H    0.55762995    0.96467017    0.00000000    0.10710000
opls_146-71    H    0.51443019    0.87287016    0.00000000    0.11500000
opls_146-72    H    0.26959999    0.69739991    0.00000000    0.11290000
opls_144-73    H    0.21494989    0.55174002    0.00000000    0.11590000
opls_146-74    H    0.13393998    0.50023003    0.00000000    0.12760000
opls_146-75    H    0.04427991    0.45060988    0.00000000    0.10710000
opls_146-76    H    0.03533992    0.59296007    0.00000000    0.10710000
opls_146-77    H    0.12713001    0.64156008    0.00000000    0.11490000
opls_146-78    H    0.69739997    0.42779008    0.00000000    0.11360000
opls_144-79    H    0.55174003    0.33678991    0.00000000    0.11590000
opls_146-80    H    0.50023009    0.36627993    0.00000000    0.09190000
opls_146-81    H    0.45061008    0.40631987    0.00000000    0.10710000
opls_146-82    H    0.59296024    0.55763024    0.00000000    0.10710000
opls_146-83    H    0.64156020    0.51443024    0.00000000    0.11500000
opls_146-84    H    0.57220985    0.26959991    0.00000000    0.11230000
opls_144-85    H    0.66321021    0.21495011    0.00000000    0.11590000
opls_146-86    H    0.63372006    0.13394018    0.00000000    0.09190000
opls_146-87    H    0.59367999    0.04428008    0.00000000    0.09690000
opls_146-88    H    0.44237005    0.03532983    0.00000000    0.10710000
opls_146-89    H    0.48556981    0.12712984    0.00000000    0.11490000
opls_146-90    H    0.73040001    0.30260009    0.00000000    0.11290000
opls_144-91    H    0.78505011    0.44825998    0.00000000    0.11600000
opls_146-92    H    0.86606002    0.49976997    0.00000000    0.12760000
opls_146-93    H    0.95572009    0.54939012    0.00000000    0.10710000
opls_146-94    H    0.96467005    0.40703993    0.00000000    0.10710000
opls_146-95    H    0.87286999    0.35843992    0.00000000    0.11490000
