#======================================================================
# Crystal Data Generated By AuToFF
#----------------------------------------------------------------------

data_AuToFF_phase_1

_cell_length_a                         36.2200
_cell_length_b                         36.2200
_cell_length_c                         4.6800
_cell_angle_alpha                      90.00
_cell_angle_beta                       90.00
_cell_angle_gamma                      90.00
_symmetry_space_group_name_H-M_alt     'P 1'
_symmetry_space_group_IT_number        1

loop_
_space_group_symop_operation_xyz
   'x, y, z'

loop_
   _atom_site_label
   _atom_site_type_symbol
   _atom_site_fract_x
   _atom_site_fract_y
   _atom_site_fract_z
   _atom_site_charge
opls_543-0    C    0.07546991    0.03148012    0.40963034    0.19170000
opls_543-1    C    0.07908007    0.97208007    0.41757906    0.18830000
opls_543-2    C    0.41968995    0.47605991    0.32110043    0.18940000
opls_543-3    C    0.92453009    0.96851988    0.40963034    0.19080000
opls_543-4    C    0.92091993    0.02791993    0.41757906    0.18830000
opls_543-5    C    0.58031005    0.52394009    0.32110043    0.18940000
opls_543-6    C    0.96851988    0.07546991    0.40963034    0.19170000
opls_543-7    C    0.02791993    0.07908007    0.41757906    0.18830000
opls_543-8    C    0.52394009    0.41968995    0.32110043    0.18940000
opls_543-9    C    0.03148012    0.92453009    0.40963034    0.19080000
opls_543-10    C    0.97208007    0.92091993    0.41757906    0.18830000
opls_543-11    C    0.47605991    0.58031005    0.32110043    0.18940000
opls_716-12    C    0.11444009    0.02136002    0.42438034    -0.19020000
opls_716-13    C    0.11658007    0.98568995    0.44151923    -0.19070000
opls_716-14    C    0.38286996    0.49169989    0.30839957    -0.19050000
opls_716-15    C    0.88555991    0.97863998    0.42438034    -0.19020000
opls_716-16    C    0.88341993    0.01431005    0.44151923    -0.19070000
opls_716-17    C    0.61713004    0.50830011    0.30839957    -0.19050000
opls_716-18    C    0.97863998    0.11444009    0.42438034    -0.19020000
opls_716-19    C    0.01431005    0.11658007    0.44151923    -0.19070000
opls_716-20    C    0.50830011    0.38286996    0.30839957    -0.19050000
opls_716-21    C    0.02136002    0.88555991    0.42438034    -0.19020000
opls_716-22    C    0.98568995    0.88341993    0.44151923    -0.19070000
opls_716-23    C    0.49169989    0.61713004    0.30839957    -0.19050000
opls_543-24    C    0.53498012    0.57331999    0.29482906    0.19030000
opls_543-25    C    0.46501988    0.42668001    0.29482906    0.19030000
opls_543-26    C    0.42668001    0.53498012    0.29482906    0.19030000
opls_543-27    C    0.57331999    0.46501988    0.29482906    0.19030000
opls_716-28    C    0.52698012    0.61267007    0.27210043    -0.18940000
opls_716-29    C    0.47301988    0.38732993    0.27210043    -0.18940000
opls_716-30    C    0.38732993    0.52698012    0.27210043    -0.18940000
opls_716-31    C    0.61267007    0.47301988    0.27210043    -0.18940000
opls_141-32    C    0.06363004    0.07028990    0.40639957    -0.07250000
opls_141-33    C    0.42698012    0.44003009    0.32532906    -0.07220000
opls_141-34    C    0.93637990    0.92971010    0.40639957    -0.07250000
opls_141-35    C    0.57301988    0.55996991    0.32532906    -0.07220000
opls_141-36    C    0.92971010    0.06363004    0.40639957    -0.07250000
opls_141-37    C    0.55996991    0.42698012    0.32532906    -0.07220000
opls_141-38    C    0.07028990    0.93637990    0.40639957    -0.07250000
opls_141-39    C    0.44003009    0.57301988    0.32532906    -0.07220000
opls_700-40    C    0.09221010    0.10036996    0.41291026    0.07060000
opls_700-41    C    0.39646991    0.41218001    0.35030983    0.07120000
opls_700-42    C    0.90778990    0.89963004    0.41291026    0.07050000
opls_700-43    C    0.60353009    0.58781999    0.35030983    0.07120000
opls_700-44    C    0.89963004    0.09221010    0.41291026    0.07060000
opls_700-45    C    0.58781999    0.39646991    0.35030983    0.07120000
opls_700-46    C    0.10036996    0.90778990    0.41291026    0.07050000
opls_700-47    C    0.41218001    0.60353009    0.35030983    0.07120000
opls_145-48    C    0.11963004    0.10109001    0.62535897    -0.12450000
opls_145-49    C    0.12913004    0.90845997    0.21104060    -0.12600000
opls_145-50    C    0.36690999    0.41149006    0.15583974    -0.12550000
opls_145-51    C    0.38507013    0.60223992    0.56486966    -0.12470000
opls_145-52    C    0.88036996    0.89890999    0.62535897    -0.12560000
opls_145-53    C    0.87086996    0.09154003    0.21104060    -0.12600000
opls_145-54    C    0.63309001    0.58850994    0.15583974    -0.12550000
opls_145-55    C    0.61492987    0.39776008    0.56486966    -0.12470000
opls_145-56    C    0.89890999    0.11963004    0.62535897    -0.12450000
opls_145-57    C    0.09154003    0.12913004    0.21104060    -0.12600000
opls_145-58    C    0.58850994    0.36690999    0.15583974    -0.12550000
opls_145-59    C    0.39776008    0.38507013    0.56486966    -0.12470000
opls_145-60    C    0.10109001    0.88036996    0.62535897    -0.12560000
opls_145-61    C    0.90845997    0.87086996    0.21104060    -0.12600000
opls_145-62    C    0.41149006    0.63309001    0.15583974    -0.12550000
opls_145-63    C    0.60223992    0.61492987    0.56486966    -0.12470000
opls_145-64    C    0.14618001    0.12918995    0.63136966    -0.16090000
opls_145-65    C    0.15813998    0.88294009    0.22583974    -0.16160000
opls_145-66    C    0.33855991    0.38545997    0.18385043    -0.15980000
opls_145-67    C    0.35807013    0.62981999    0.58495085    -0.16190000
opls_145-68    C    0.85382993    0.87081005    0.63136966    -0.16090000
opls_145-69    C    0.84186002    0.11705991    0.22583974    -0.16160000
opls_145-70    C    0.66144009    0.61454003    0.18385043    -0.15980000
opls_145-71    C    0.64192987    0.37018001    0.58495085    -0.16190000
opls_145-72    C    0.87081005    0.14618001    0.63136966    -0.16090000
opls_145-73    C    0.11705991    0.15813998    0.22583974    -0.16160000
opls_145-74    C    0.61454003    0.33855991    0.18385043    -0.15980000
opls_145-75    C    0.37018001    0.35807013    0.58495085    -0.16190000
opls_145-76    C    0.12918995    0.85382993    0.63136966    -0.16090000
opls_145-77    C    0.88294009    0.84186002    0.22583974    -0.16160000
opls_145-78    C    0.38545997    0.66144009    0.18385043    -0.15980000
opls_145-79    C    0.62981999    0.64192987    0.58495085    -0.16190000
opls_145-80    C    0.14441993    0.15854003    0.43575000    0.19800000
opls_145-81    C    0.33977002    0.35872998    0.39860897    0.19810000
opls_145-82    C    0.85558007    0.84145997    0.43575000    0.19800000
opls_145-83    C    0.66022998    0.64127002    0.39860897    0.19810000
opls_145-84    C    0.84145997    0.14441993    0.43575000    0.19800000
opls_145-85    C    0.64127002    0.33977002    0.39860897    0.19810000
opls_145-86    C    0.15854003    0.85558007    0.43575000    0.19800000
opls_145-87    C    0.35872998    0.66022998    0.39860897    0.19810000
opls_142-88    C    0.69936002    0.68613998    0.64211966    0.07340000
opls_142-89    C    0.81160988    0.79990006    0.66364957    0.07090000
opls_700-90    C    0.78513004    0.76876008    0.64714103    -0.03260000
opls_145-91    C    0.75476008    0.77016013    0.83242949    -0.11420000
opls_145-92    C    0.72781999    0.74281005    0.82791026    -0.11270000
opls_700-93    C    0.73017007    0.71308007    0.63745940    -0.03430000
opls_166-94    C    0.76133987    0.71022004    0.45372009    0.18620000
opls_166-95    C    0.78900000    0.73818001    0.45822009    0.17680000
opls_142-96    C    0.30064992    0.31386002    0.64211966    0.07340000
opls_142-97    C    0.18839012    0.20009994    0.66364957    0.07190000
opls_700-98    C    0.21487990    0.23123992    0.64714103    -0.03260000
opls_145-99    C    0.24523992    0.22983987    0.83242949    -0.11650000
opls_145-100    C    0.27218001    0.25718995    0.82791026    -0.11270000
opls_700-101    C    0.26982993    0.28691993    0.63745940    -0.03280000
opls_166-102    C    0.23866013    0.28977996    0.45372009    0.18620000
opls_166-103    C    0.21100000    0.26181999    0.45822009    0.17680000
opls_142-104    C    0.31386002    0.69936002    0.64211966    0.07340000
opls_142-105    C    0.20009994    0.81160988    0.66364957    0.07090000
opls_700-106    C    0.23123992    0.78513004    0.64714103    -0.03260000
opls_145-107    C    0.22983987    0.75476008    0.83242949    -0.11420000
opls_145-108    C    0.25718995    0.72781999    0.82791026    -0.11270000
opls_700-109    C    0.28691993    0.73017007    0.63745940    -0.03430000
opls_166-110    C    0.28977996    0.76133987    0.45372009    0.18620000
opls_166-111    C    0.26181999    0.78900000    0.45822009    0.17680000
opls_142-112    C    0.68613998    0.30064992    0.64211966    0.07340000
opls_142-113    C    0.79990006    0.18839012    0.66364957    0.07190000
opls_700-114    C    0.76876008    0.21487990    0.64714103    -0.03260000
opls_145-115    C    0.77016013    0.24523992    0.83242949    -0.11420000
opls_145-116    C    0.74281005    0.27218001    0.82791026    -0.11260000
opls_700-117    C    0.71308007    0.26982993    0.63745940    -0.03290000
opls_166-118    C    0.71022004    0.23866013    0.45372009    0.18620000
opls_166-119    C    0.73818001    0.21100000    0.45822009    0.17680000
opls_547-120    H    0.13832993    0.03923992    0.41647009    0.12360000
opls_547-121    H    0.14208007    0.97032993    0.46367094    0.12060000
opls_547-122    H    0.35635008    0.47805991    0.32151923    0.12520000
opls_547-123    H    0.86167007    0.96076008    0.41647009    0.12350000
opls_547-124    H    0.85791993    0.02967007    0.46367094    0.12060000
opls_547-125    H    0.64364992    0.52195003    0.32151923    0.12250000
opls_547-126    H    0.96076008    0.13832993    0.41647009    0.12350000
opls_547-127    H    0.02967007    0.14208007    0.46367094    0.12060000
opls_547-128    H    0.52195003    0.35635008    0.32151923    0.12250000
opls_547-129    H    0.03923992    0.86167007    0.41647009    0.12350000
opls_547-130    H    0.97032993    0.85791993    0.46367094    0.12060000
opls_547-131    H    0.47805991    0.64364992    0.32151923    0.12520000
opls_547-132    H    0.54648012    0.63509001    0.24516026    0.12390000
opls_547-133    H    0.45351988    0.36490999    0.24516026    0.12390000
opls_547-134    H    0.36490999    0.54648012    0.24516026    0.12390000
opls_547-135    H    0.63509001    0.45351988    0.24516026    0.12390000
opls_146-136    H    0.12041993    0.07995003    0.78910897    0.11940000
opls_146-137    H    0.12930011    0.92904003    0.04289957    0.12040000
opls_146-138    H    0.36582993    0.43099006    0.98042949    0.12390000
opls_146-139    H    0.38468995    0.57964992    0.71677991    0.12070000
opls_146-140    H    0.87958007    0.92004997    0.78910897    0.11940000
opls_146-141    H    0.87069989    0.07095997    0.04289957    0.12040000
opls_146-142    H    0.63417007    0.56900994    0.98042949    0.12390000
opls_146-143    H    0.61531005    0.42035008    0.71677991    0.12070000
opls_146-144    H    0.92004997    0.12041993    0.78910897    0.11940000
opls_146-145    H    0.07095997    0.12930011    0.04289957    0.12040000
opls_146-146    H    0.56900994    0.36582993    0.98042949    0.12390000
opls_146-147    H    0.42035008    0.38468995    0.71677991    0.12070000
opls_146-148    H    0.07995003    0.87958007    0.78910897    0.11940000
opls_146-149    H    0.92904003    0.87069989    0.04289957    0.12050000
opls_146-150    H    0.43099006    0.63417007    0.98042949    0.12390000
opls_146-151    H    0.57964992    0.61531005    0.71677991    0.12070000
opls_146-152    H    0.16759994    0.12813998    0.79167949    0.12530000
opls_146-153    H    0.18045997    0.88408007    0.07233974    0.12240000
opls_146-154    H    0.31558007    0.38566013    0.03582906    0.12150000
opls_146-155    H    0.33703009    0.62731999    0.74738034    0.12610000
opls_146-156    H    0.83240006    0.87186002    0.79167949    0.12600000
opls_146-157    H    0.81954003    0.11591993    0.07233974    0.12240000
opls_146-158    H    0.68441993    0.61433987    0.03582906    0.12140000
opls_146-159    H    0.66296991    0.37268001    0.74738034    0.12600000
opls_146-160    H    0.87186002    0.16759994    0.79167949    0.12530000
opls_146-161    H    0.11591993    0.18045997    0.07233974    0.12250000
opls_146-162    H    0.61433987    0.31558007    0.03582906    0.12140000
opls_146-163    H    0.37268001    0.33703009    0.74738034    0.12600000
opls_146-164    H    0.12813998    0.83240006    0.79167949    0.12600000
opls_146-165    H    0.88408007    0.81954003    0.07233974    0.12240000
opls_146-166    H    0.38566013    0.68441993    0.03582906    0.12140000
opls_146-167    H    0.62731999    0.66296991    0.74738034    0.12600000
opls_144-168    H    0.81428990    0.81395003    0.86695940    0.10100000
opls_146-169    H    0.75180011    0.79294009    0.98136966    0.12090000
opls_146-170    H    0.74501988    0.29536996    0.97382051    0.11830000
opls_168-171    H    0.65626008    0.24585008    0.34069017    0.33880000
opls_168-172    H    0.74836002    0.15753009    0.34432906    0.34530000
opls_144-173    H    0.31595997    0.31682993    0.83926068    0.12690000
opls_144-174    H    0.18571010    0.18604997    0.86695940    0.10100000
opls_146-175    H    0.24821010    0.20707013    0.98136966    0.11960000
opls_146-176    H    0.25498012    0.70463004    0.97382051    0.11830000
opls_168-177    H    0.34373992    0.75414992    0.34069017    0.33870000
opls_168-178    H    0.25163998    0.84246991    0.34432906    0.34540000
opls_144-179    H    0.68404997    0.68317007    0.83926068    0.12690000
opls_144-180    H    0.18604997    0.81428990    0.86695940    0.10100000
opls_146-181    H    0.20707013    0.75180011    0.98136966    0.12120000
opls_146-182    H    0.70463004    0.74501988    0.97382051    0.11830000
opls_168-183    H    0.75414992    0.65626008    0.34069017    0.33870000
opls_168-184    H    0.84246991    0.74836002    0.34432906    0.34530000
opls_144-185    H    0.68317007    0.31595997    0.83926068    0.12690000
opls_144-186    H    0.81395003    0.18571010    0.86695940    0.10100000
opls_146-187    H    0.79294009    0.24821010    0.98136966    0.11830000
opls_146-188    H    0.29536996    0.25498012    0.97382051    0.11830000
opls_168-189    H    0.24585008    0.34373992    0.34069017    0.33870000
opls_168-190    H    0.15753009    0.25163998    0.34432906    0.34530000
opls_144-191    H    0.31682993    0.68404997    0.83926068    0.12690000
opls_542-192    N    0.50504997    0.55342987    0.31467094    -0.37270000
opls_542-193    N    0.49495003    0.44657013    0.31467094    -0.37280000
opls_542-194    N    0.44657013    0.50504997    0.31467094    -0.37280000
opls_542-195    N    0.55342987    0.49495003    0.31467094    -0.37280000
opls_542-196    N    0.05392987    0.00255991    0.40363034    -0.37280000
opls_542-197    N    0.94607013    0.99744009    0.40363034    -0.37280000
opls_542-198    N    0.99744009    0.05392987    0.40363034    -0.37280000
opls_542-199    N    0.00255991    0.94607013    0.40363034    -0.37280000
opls_750-200    N    0.68999006    0.66744009    0.41645085    -0.32510000
opls_750-201    N    0.83010988    0.81100994    0.44157906    -0.32520000
opls_750-202    N    0.31000994    0.33255991    0.41645085    -0.32520000
opls_750-203    N    0.16989012    0.18899006    0.44157906    -0.32520000
opls_750-204    N    0.33255991    0.68999006    0.41645085    -0.32520000
opls_750-205    N    0.18899006    0.83010988    0.44157906    -0.32520000
opls_750-206    N    0.66744009    0.31000994    0.41645085    -0.32520000
opls_750-207    N    0.81100994    0.16989012    0.44157906    -0.32520000
opls_167-208    O    0.76616013    0.67974986    0.27039103    -0.51200000
opls_167-209    O    0.82013004    0.73387990    0.28051068    -0.51200000
opls_167-210    O    0.23383987    0.32025014    0.27039103    -0.51190000
opls_167-211    O    0.17986996    0.26612010    0.28051068    -0.51200000
opls_167-212    O    0.32025014    0.76616013    0.27039103    -0.51200000
opls_167-213    O    0.26612010    0.82013004    0.28051068    -0.51200000
opls_167-214    O    0.67974986    0.23383987    0.27039103    -0.51200000
opls_167-215    O    0.73387990    0.17986996    0.28051068    -0.51190000
Cu2+-216    Cu    0.00000000    0.00000000    0.29982906    0.67500000
Cu2+-217    Cu    0.50000000    0.50000000    0.42926923    0.67500000
