#======================================================================
# Crystal Data Generated By AuToFF
#----------------------------------------------------------------------

data_AuToFF_phase_1

_cell_length_a                         27.8849
_cell_length_b                         29.1050
_cell_length_c                         8.1674
_cell_angle_alpha                      90.00
_cell_angle_beta                       90.00
_cell_angle_gamma                      120.00
_symmetry_space_group_name_H-M_alt     'P 1'
_symmetry_space_group_IT_number        1

loop_
_space_group_symop_operation_xyz
   'x, y, z'

loop_
   _atom_site_label
   _atom_site_type_symbol
   _atom_site_fract_x
   _atom_site_fract_y
   _atom_site_fract_z
   _atom_site_charge
opls_404-0    Li    0.00604013    0.37949001    0.05538972    0.67180000
opls_404-1    Li    0.48014990    0.62011008    0.35926978    0.67190000
opls_404-2    Li    0.67483997    0.42158014    0.30530034    0.67180000
opls_404-3    Li    0.86687975    0.94346986    0.41050028    0.67180000
opls_404-4    Li    0.55132974    0.95052978    0.36070965    0.45260000
opls_404-5    Li    0.09551982    0.74260990    0.20172025    0.67190000
opls_404-6    Li    0.00604013    0.37949001    0.55538972    0.67190000
opls_404-7    Li    0.48014990    0.62011008    0.85926978    0.67180000
opls_404-8    Li    0.67483997    0.42158014    0.80530034    0.67180000
opls_404-9    Li    0.86687975    0.94346986    0.91050028    0.67190000
opls_404-10    Li    0.55132974    0.95052978    0.86070965    0.45260000
opls_404-11    Li    0.09551982    0.74260990    0.70173005    0.67180000
opls_917-12    C    0.68018008    0.05298014    0.88518990    0.19740000
opls_145-13    C    0.73022989    0.07992011    0.97167030    -0.12520000
opls_145-14    C    0.75919017    0.13506009    0.98174939    -0.10340000
opls_700-15    C    0.73836995    0.16454988    0.90599946    0.08000000
opls_145-16    C    0.68710980    0.13780987    0.82574993    -0.05280000
opls_700-17    C    0.65705993    0.08193990    0.81259030    -0.09560000
opls_700-18    C    0.77220016    0.22312004    0.89509024    0.07850000
opls_145-19    C    0.82764008    0.24691984    0.84468007    -0.07050000
opls_700-20    C    0.85838004    0.30145003    0.80871024    -0.21020000
opls_145-21    C    0.83309012    0.33296992    0.82945980    0.20570000
opls_145-22    C    0.77816986    0.30904991    0.88430957    -0.12520000
opls_145-23    C    0.74798993    0.25481013    0.91690991    -0.10320000
opls_137-24    C    0.62739985    0.95993005    0.98123026    -0.29030000
opls_145-25    C    0.62407992    0.91215984    0.99552979    0.00860000
opls_166-26    C    0.57742004    0.86948016    0.08924994    0.35380000
opls_145-27    C    0.56567008    0.81358004    0.07980018    -0.17040000
opls_280-28    C    0.60194008    0.80195012    0.97399050    0.32310000
opls_145-29    C    0.65333990    0.84548001    0.89867032    -0.10010000
opls_280-30    C    0.66574018    0.90090008    0.92194946    0.38050000
opls_142-31    C    0.68864000    0.83653995    0.80847026    0.01450000
opls_142-32    C    0.52017006    0.77221990    0.14830056    0.01720000
opls_145-33    C    0.70487995    0.76055983    0.88108945    0.20420000
opls_145-34    C    0.66899009    0.70890994    0.93751990    -0.15090000
opls_145-35    C    0.68877996    0.67963994    0.01863016    -0.10490000
opls_700-36    C    0.74592004    0.69948984    0.03596004    0.07490000
opls_145-37    C    0.78217993    0.75109013    0.97825991    -0.05280000
opls_700-38    C    0.76274995    0.78274015    0.90661043    -0.18000000
opls_700-39    C    0.76800995    0.66611996    0.10663981    0.07480000
opls_145-40    C    0.73667002    0.61020992    0.10216960    -0.05200000
opls_700-41    C    0.75833997    0.57874002    0.16064966    -0.22150000
opls_145-42    C    0.81470998    0.60383001    0.20798051    0.20420000
opls_145-43    C    0.84459992    0.65910012    0.22242941    -0.12500000
opls_145-44    C    0.82132012    0.68979004    0.17610011    -0.08410000
opls_142-45    C    0.83977002    0.53526012    0.12312976    0.01460000
opls_145-46    C    0.88342006    0.53033980    0.07478022    -0.16960000
opls_280-47    C    0.87275010    0.48247993    0.97832970    0.31350000
opls_145-48    C    0.91812000    0.47036004    0.94948943    -0.10400000
opls_280-49    C    0.97329995    0.50785994    0.01718050    0.35400000
opls_145-50    C    0.98763986    0.56294992    0.05400984    -0.19650000
opls_280-51    C    0.94212999    0.57236011    0.10334011    0.37850000
opls_142-52    C    0.91095992    0.42602002    0.87370032    0.01450000
opls_142-53    C    0.03986992    0.60378002    0.03952053    0.01500000
opls_145-54    C    0.13880997    0.62684983    0.01549942    0.20150000
opls_145-55    C    0.15819975    0.59859984    0.10585988    -0.12500000
opls_145-56    C    0.21317013    0.62258016    0.15644024    -0.10500000
opls_700-57    C    0.25080024    0.67529012    0.11332003    0.07580000
opls_145-58    C    0.23146007    0.70385989    0.02259960    -0.05220000
opls_700-59    C    0.17563000    0.68062979    0.97366971    -0.10920000
opls_700-60    C    0.31029005    0.70035988    0.16031050    0.07520000
opls_145-61    C    0.33705006    0.67025991    0.16694052    -0.06380000
opls_700-62    C    0.39326013    0.69357014    0.21050028    -0.20700000
opls_145-63    C    0.42425987    0.74920008    0.23601024    0.20660000
opls_145-64    C    0.39697991    0.77857998    0.23480055    -0.12500000
opls_145-65    C    0.34074012    0.75455999    0.19897030    -0.10500000
opls_470-66    C    0.60426993    0.05838012    0.71619977    0.64900000
opls_470-67    C    0.91455015    0.32255005    0.73930014    0.67330000
opls_470-68    C    0.80513982    0.83741991    0.86014031    0.67480000
opls_470-69    C    0.72018985    0.52107006    0.18403041    0.67180000
opls_470-70    C    0.15826988    0.71303004    0.87614051    0.67460000
opls_470-71    C    0.41673994    0.65844986    0.23853980    0.66410000
opls_917-72    C    0.68018008    0.05298014    0.38518990    0.19740000
opls_145-73    C    0.73022989    0.07992011    0.47167030    -0.12510000
opls_145-74    C    0.75919017    0.13506009    0.48174939    -0.10340000
opls_700-75    C    0.73836995    0.16454988    0.40599946    0.08000000
opls_145-76    C    0.68710980    0.13780987    0.32574993    -0.05280000
opls_700-77    C    0.65705993    0.08193990    0.31259030    -0.09560000
opls_700-78    C    0.77220016    0.22312004    0.39509024    0.07850000
opls_145-79    C    0.82764008    0.24691984    0.34468007    -0.07050000
opls_700-80    C    0.85838004    0.30145003    0.30871024    -0.21020000
opls_145-81    C    0.83309012    0.33296992    0.32945980    0.20570000
opls_145-82    C    0.77816986    0.30904991    0.38430957    -0.12520000
opls_145-83    C    0.74798993    0.25481013    0.41690991    -0.10320000
opls_137-84    C    0.62739985    0.95993005    0.48123026    -0.29030000
opls_145-85    C    0.62407992    0.91215984    0.49552979    0.00860000
opls_166-86    C    0.57742004    0.86948016    0.58924994    0.35380000
opls_145-87    C    0.56567008    0.81358004    0.57980018    -0.17040000
opls_280-88    C    0.60194008    0.80195012    0.47399050    0.32320000
opls_145-89    C    0.65333990    0.84548001    0.39867032    -0.10010000
opls_280-90    C    0.66574018    0.90090008    0.42194946    0.38060000
opls_142-91    C    0.68864000    0.83653995    0.30847026    0.01450000
opls_142-92    C    0.52017006    0.77221990    0.64830056    0.01720000
opls_145-93    C    0.70487995    0.76055983    0.38108945    0.20420000
opls_145-94    C    0.66899009    0.70890994    0.43751990    -0.15090000
opls_145-95    C    0.68877996    0.67963994    0.51863016    -0.10490000
opls_700-96    C    0.74592004    0.69948984    0.53596004    0.07490000
opls_145-97    C    0.78217993    0.75109013    0.47825991    -0.05280000
opls_700-98    C    0.76274995    0.78274015    0.40661043    -0.18000000
opls_700-99    C    0.76800995    0.66611996    0.60663981    0.07480000
opls_145-100    C    0.73667002    0.61020992    0.60216960    -0.05200000
opls_700-101    C    0.75833997    0.57874002    0.66064966    -0.22150000
opls_145-102    C    0.81470998    0.60383001    0.70798051    0.20430000
opls_145-103    C    0.84459992    0.65910012    0.72242941    -0.12500000
opls_145-104    C    0.82132012    0.68979004    0.67610011    -0.08410000
opls_142-105    C    0.83977002    0.53526012    0.62312976    0.01460000
opls_145-106    C    0.88342006    0.53033980    0.57478022    -0.16960000
opls_280-107    C    0.87275010    0.48247993    0.47831991    0.31350000
opls_145-108    C    0.91812000    0.47036004    0.44948943    -0.10400000
opls_280-109    C    0.97329995    0.50785994    0.51719029    0.35400000
opls_145-110    C    0.98763986    0.56294992    0.55400984    -0.19650000
opls_280-111    C    0.94212999    0.57236011    0.60334011    0.37850000
opls_142-112    C    0.91095992    0.42602002    0.37370032    0.01450000
opls_142-113    C    0.03986992    0.60378002    0.53952053    0.01500000
opls_145-114    C    0.13880997    0.62684983    0.51549942    0.20150000
opls_145-115    C    0.15819975    0.59859984    0.60585988    -0.12500000
opls_145-116    C    0.21317013    0.62258016    0.65644024    -0.10500000
opls_700-117    C    0.25080024    0.67529012    0.61332003    0.07580000
opls_145-118    C    0.23146007    0.70385989    0.52259960    -0.05220000
opls_700-119    C    0.17563000    0.68062979    0.47366971    -0.10920000
opls_700-120    C    0.31029005    0.70035988    0.66031050    0.07520000
opls_145-121    C    0.33705006    0.67025991    0.66694052    -0.06380000
opls_700-122    C    0.39326013    0.69357014    0.71050028    -0.20700000
opls_145-123    C    0.42425987    0.74920008    0.73601024    0.20660000
opls_145-124    C    0.39697991    0.77857998    0.73480055    -0.12500000
opls_145-125    C    0.34074012    0.75455999    0.69897030    -0.10500000
opls_470-126    C    0.60426993    0.05838012    0.21619977    0.64910000
opls_470-127    C    0.91455015    0.32255005    0.23930014    0.67350000
opls_470-128    C    0.80513982    0.83741991    0.36014031    0.67480000
opls_470-129    C    0.72018985    0.52107006    0.68403041    0.67190000
opls_470-130    C    0.15826988    0.71303004    0.37614051    0.67460000
opls_470-131    C    0.41673994    0.65844986    0.73853980    0.66420000
opls_900-132    N    0.65857015    0.99776003    0.85663981    -0.04530000
opls_750-133    N    0.68135985    0.78490990    0.78005975    -0.23180000
opls_750-134    N    0.84382001    0.57530984    0.23466954    -0.23350000
opls_750-135    N    0.86077999    0.38862010    0.79270025    -0.23250000
opls_750-136    N    0.08271024    0.59856017    0.95943017    -0.23240000
opls_750-137    N    0.48319019    0.77759012    0.25902980    -0.23160000
opls_900-138    N    0.65857015    0.99776003    0.35663981    -0.04530000
opls_750-139    N    0.68135985    0.78490990    0.28005975    -0.23180000
opls_750-140    N    0.84382001    0.57530984    0.73466954    -0.23350000
opls_750-141    N    0.86077999    0.38862010    0.29270025    -0.23240000
opls_750-142    N    0.08271024    0.59856017    0.45943017    -0.23230000
opls_750-143    N    0.48319019    0.77759012    0.75902980    -0.23160000
opls_281-144    O    0.71185993    0.93756008    0.88912996    -0.35550000
opls_281-145    O    0.58841000    0.75586009    0.94646032    -0.35630000
opls_167-146    O    0.54619983    0.88005000    0.16357960    -0.35710000
opls_281-147    O    0.82589017    0.45188007    0.93069031    -0.35710000
opls_281-148    O    0.00629983    0.49308985    0.04782060    -0.35530000
opls_281-149    O    0.95323976    0.61575987    0.15657002    -0.35730000
opls_272-150    O    0.59817983    0.08641984    0.61730049    -0.40600000
opls_180-151    O    0.55921014    0.00738009    0.73795945    -0.48210000
opls_272-152    O    0.94258008    0.30275014    0.77658986    -0.40580000
opls_180-153    O    0.93534986    0.36370983    0.62676005    -0.54250000
opls_272-154    O    0.84887011    0.84577002    0.80053016    -0.40890000
opls_180-155    O    0.79832994    0.88029003    0.89690967    -0.54250000
opls_272-156    O    0.67723017    0.49796018    0.10621005    -0.40390000
opls_180-157    O    0.73163005    0.49297995    0.30031956    -0.54280000
opls_180-158    O    0.10449004    0.69188004    0.81929010    -0.54240000
opls_272-159    O    0.19142008    0.75922005    0.84444009    -0.40580000
opls_180-160    O    0.45894989    0.67205990    0.35185004    -0.54260000
opls_272-161    O    0.39845987    0.61658984    0.16509048    -0.40610000
opls_281-162    O    0.71185993    0.93756008    0.38912996    -0.35550000
opls_281-163    O    0.58841000    0.75586009    0.44645052    -0.35630000
opls_167-164    O    0.54619983    0.88005000    0.66357960    -0.35710000
opls_281-165    O    0.82589017    0.45188007    0.43068051    -0.35700000
opls_281-166    O    0.00629983    0.49308985    0.54782060    -0.35510000
opls_281-167    O    0.95323976    0.61575987    0.65657002    -0.35730000
opls_272-168    O    0.59817983    0.08641984    0.11730049    -0.40600000
opls_180-169    O    0.55921014    0.00738009    0.23795945    -0.48210000
opls_272-170    O    0.94258008    0.30275014    0.27658986    -0.40580000
opls_180-171    O    0.93534986    0.36370983    0.12676005    -0.54250000
opls_272-172    O    0.84887011    0.84577002    0.30053016    -0.40890000
opls_180-173    O    0.79832994    0.88029003    0.39690967    -0.54240000
opls_272-174    O    0.67723017    0.49796018    0.60621005    -0.40390000
opls_180-175    O    0.73163005    0.49297995    0.80031956    -0.54280000
opls_180-176    O    0.10449004    0.69188004    0.31929010    -0.54240000
opls_272-177    O    0.19142008    0.75922005    0.34444009    -0.40590000
opls_180-178    O    0.45894989    0.67205990    0.85185004    -0.54270000
opls_272-179    O    0.39845987    0.61658984    0.66509048    -0.40620000
opls_146-180    H    0.74781005    0.05664995    0.03512011    0.04540000
opls_146-181    H    0.79996021    0.15625016    0.05186963    0.04540000
opls_146-182    H    0.66856007    0.16121016    0.76882974    0.04540000
opls_146-183    H    0.84855998    0.22200997    0.83224037    0.04540000
opls_146-184    H    0.75755005    0.33402008    0.90286995    0.04540000
opls_146-185    H    0.70338990    0.23626986    0.96153978    0.04540000
opls_140-186    H    0.60452982    0.97200987    0.07166050    0.11970000
opls_144-187    H    0.72667024    0.87123016    0.75024977    0.02680000
opls_144-188    H    0.50917997    0.72976001    0.11899013    0.02680000
opls_146-189    H    0.62244996    0.68998007    0.91732987    0.04540000
opls_146-190    H    0.65847995    0.63907010    0.07188946    0.04540000
opls_146-191    H    0.82886987    0.76847987    0.98878958    0.04540000
opls_146-192    H    0.69283014    0.58957012    0.05043955    0.04540000
opls_146-193    H    0.88863021    0.67966017    0.27266939    0.04540000
opls_146-194    H    0.84598994    0.73457996    0.19504983    0.04540000
opls_144-195    H    0.79652021    0.50658007    0.07493939    0.02680000
opls_144-196    H    0.94603994    0.41663007    0.87176947    0.02680000
opls_144-197    H    0.05134995    0.64430979    0.09193991    0.02680000
opls_146-198    H    0.12883992    0.55530998    0.13906996    0.04540000
opls_146-199    H    0.22791979    0.59936990    0.23351005    0.04540000
opls_146-200    H    0.26116994    0.74683990    0.98696035    0.04540000
opls_146-201    H    0.31314005    0.62611984    0.13669956    0.04540000
opls_146-202    H    0.42085993    0.82283986    0.26344002    0.04540000
opls_146-203    H    0.31903007    0.77893982    0.20085951    0.04550000
opls_146-204    H    0.74781005    0.05664995    0.53512011    0.04540000
opls_146-205    H    0.79996021    0.15625016    0.55186963    0.04540000
opls_146-206    H    0.66856007    0.16121016    0.26882974    0.04540000
opls_146-207    H    0.84855998    0.22200997    0.33224037    0.04540000
opls_146-208    H    0.75755005    0.33402008    0.40286995    0.04540000
opls_146-209    H    0.70338990    0.23626986    0.46153978    0.04540000
opls_140-210    H    0.60452982    0.97200987    0.57166050    0.11960000
opls_144-211    H    0.72667024    0.87123016    0.25024977    0.02680000
opls_144-212    H    0.50917997    0.72976001    0.61899013    0.02680000
opls_146-213    H    0.62244996    0.68998007    0.41732987    0.04540000
opls_146-214    H    0.65847995    0.63907010    0.57188946    0.04540000
opls_146-215    H    0.82886987    0.76847987    0.48878958    0.04540000
opls_146-216    H    0.69283014    0.58957012    0.55043955    0.04540000
opls_146-217    H    0.88863021    0.67966017    0.77266939    0.04540000
opls_146-218    H    0.84598994    0.73457996    0.69504983    0.04540000
opls_144-219    H    0.79652021    0.50658007    0.57493939    0.02680000
opls_144-220    H    0.94603994    0.41663007    0.37176947    0.02680000
opls_144-221    H    0.05134995    0.64430979    0.59193991    0.02680000
opls_146-222    H    0.12883992    0.55530998    0.63906996    0.04540000
opls_146-223    H    0.22791979    0.59936990    0.73351005    0.04540000
opls_146-224    H    0.26116994    0.74683990    0.48696035    0.04540000
opls_146-225    H    0.31314005    0.62611984    0.63669956    0.04540000
opls_146-226    H    0.42085993    0.82283986    0.76344002    0.04540000
opls_146-227    H    0.31903007    0.77893982    0.70085951    0.04540000
