#======================================================================
# Crystal Data Generated By AuToFF
#----------------------------------------------------------------------

data_AuToFF_phase_1

_cell_length_a                         22.7331
_cell_length_b                         22.7331
_cell_length_c                         3.4764
_cell_angle_alpha                      90.00
_cell_angle_beta                       90.00
_cell_angle_gamma                      120.00
_symmetry_space_group_name_H-M_alt     'P 1'
_symmetry_space_group_IT_number        1

loop_
_space_group_symop_operation_xyz
   'x, y, z'

loop_
   _atom_site_label
   _atom_site_type_symbol
   _atom_site_fract_x
   _atom_site_fract_y
   _atom_site_fract_z
   _atom_site_charge
MOF2_B_2-0    B    0.47930992    0.95861016    0.50000000    0.56530000
MOF2_B_2-1    B    0.04138998    0.52070000    0.50000000    0.56530000
MOF2_B_2-2    B    0.47931002    0.52070000    0.50000000    0.56530000
opls_167-3    O    0.08202011    0.48714002    0.50000000    -0.35590000
opls_167-4    O    0.51285995    0.59488029    0.50000000    -0.35590000
opls_167-5    O    0.40512019    0.91798019    0.50000000    -0.35590000
opls_167-6    O    0.51286000    0.91798019    0.50000000    -0.35590000
opls_167-7    O    0.40511991    0.48714002    0.50000000    -0.35590000
opls_167-8    O    0.08202034    0.59488029    0.50000000    -0.35590000
opls_145-9    C    0.92474976    0.40621990    0.50000000    -0.06640000
opls_145-10    C    0.85418001    0.37031021    0.50000000    -0.09880000
opls_700-11    C    0.27046005    0.60361987    0.50000000    0.03350000
opls_166-12    C    0.14672996    0.54343023    0.50000000    0.17370000
opls_145-13    C    0.20677005    0.54179010    0.50000000    -0.24130000
opls_145-14    C    0.59377991    0.51853009    0.50000000    -0.06640000
opls_145-15    C    0.62968982    0.48386992    0.50000000    -0.09880000
opls_700-16    C    0.39638011    0.66683987    0.50000000    0.03350000
opls_166-17    C    0.45656985    0.60329987    0.50000000    0.17370000
opls_145-18    C    0.45821036    0.66498031    0.50000000    -0.24120000
opls_145-19    C    0.48146988    0.07525001    0.50000000    -0.06640000
opls_145-20    C    0.51612973    0.14581987    0.50000000    -0.09880000
opls_700-21    C    0.33316027    0.72954026    0.50000000    0.03350000
opls_166-22    C    0.39669975    0.85326990    0.50000000    0.17370000
opls_145-23    C    0.33501984    0.79323010    0.50000000    -0.24130000
opls_145-24    C    0.59378013    0.07525001    0.50000000    -0.06640000
opls_145-25    C    0.62969014    0.14581987    0.50000000    -0.09880000
opls_700-26    C    0.39637998    0.72954026    0.50000000    0.03350000
opls_166-27    C    0.45657016    0.85326990    0.50000000    0.17370000
opls_145-28    C    0.45821026    0.79323010    0.50000000    -0.24110000
opls_145-29    C    0.48147014    0.40621990    0.50000000    -0.06640000
opls_145-30    C    0.51613020    0.37031021    0.50000000    -0.09880000
opls_700-31    C    0.33315982    0.60361987    0.50000000    0.03350000
opls_166-32    C    0.39670027    0.54343023    0.50000000    0.17370000
opls_145-33    C    0.33502005    0.54179010    0.50000000    -0.24120000
opls_145-34    C    0.92475017    0.51853009    0.50000000    -0.06640000
opls_145-35    C    0.85418010    0.48386992    0.50000000    -0.09880000
opls_700-36    C    0.27045976    0.66683987    0.50000000    0.03350000
opls_166-37    C    0.14673002    0.60329987    0.50000000    0.17370000
opls_145-38    C    0.20676995    0.66498031    0.50000000    -0.24120000
opls_700-39    C    0.63092002    0.26184004    0.50000000    0.06900000
opls_145-40    C    0.51888972    0.03776977    0.50000000    -0.20100000
opls_700-41    C    0.59262988    0.18525009    0.50000000    0.06550000
opls_700-42    C    0.73816004    0.36907998    0.50000000    0.06900000
opls_145-43    C    0.96223014    0.48111994    0.50000000    -0.20100000
opls_700-44    C    0.81474986    0.40736988    0.50000000    0.06560000
opls_700-45    C    0.63091994    0.36907998    0.50000000    0.06900000
opls_145-46    C    0.51889026    0.48111029    0.50000000    -0.20100000
opls_700-47    C    0.59263013    0.40736988    0.50000000    0.06550000
opls_145-48    C    0.59595975    0.29797983    0.50000000    -0.17160000
opls_145-49    C    0.70202008    0.29797983    0.50000000    -0.17160000
opls_145-50    C    0.70201992    0.40403983    0.50000000    -0.17160000
opls_146-51    H    0.20114005    0.49198982    0.50000000    0.09590000
opls_146-52    H    0.95199031    0.37847023    0.50000000    0.11680000
opls_146-53    H    0.82803006    0.31537010    0.50000000    0.11920000
opls_146-54    H    0.50800991    0.70915010    0.50000000    0.09590000
opls_146-55    H    0.62152999    0.57351997    0.50000000    0.11680000
opls_146-56    H    0.68463007    0.51265985    0.50000000    0.11920000
opls_146-57    H    0.29085004    0.79886009    0.50000000    0.09590000
opls_146-58    H    0.42647970    0.04800980    0.50000000    0.11680000
opls_146-59    H    0.48733988    0.17197005    0.50000000    0.11920000
opls_146-60    H    0.50801004    0.79886009    0.50000000    0.09590000
opls_146-61    H    0.62153009    0.04800980    0.50000000    0.11680000
opls_146-62    H    0.68463017    0.17197005    0.50000000    0.11920000
opls_146-63    H    0.29084977    0.49198982    0.50000000    0.09590000
opls_146-64    H    0.42647993    0.37847023    0.50000000    0.11680000
opls_146-65    H    0.48734005    0.31537010    0.50000000    0.11920000
opls_146-66    H    0.20114019    0.70915010    0.50000000    0.09590000
opls_146-67    H    0.95198998    0.57351997    0.50000000    0.11680000
opls_146-68    H    0.82802978    0.51265985    0.50000000    0.11920000
opls_146-69    H    0.72949973    0.27049987    0.50000000    0.11920000
opls_146-70    H    0.72950013    0.45900026    0.50000000    0.11920000
opls_146-71    H    0.54100014    0.27049987    0.50000000    0.11920000
