#======================================================================
# Crystal Data Generated By AuToFF
#----------------------------------------------------------------------

data_AuToFF_phase_1

_cell_length_a                         11.2024
_cell_length_b                         11.2061
_cell_length_c                         3.4772
_cell_angle_alpha                      97.11
_cell_angle_beta                       91.61
_cell_angle_gamma                      119.73
_symmetry_space_group_name_H-M_alt     'P 1'
_symmetry_space_group_IT_number        1

loop_
_space_group_symop_operation_xyz
   'x, y, z'

loop_
   _atom_site_label
   _atom_site_type_symbol
   _atom_site_fract_x
   _atom_site_fract_y
   _atom_site_fract_z
   _atom_site_charge
opls_142-0    C    0.47505992    0.43704013    0.52016131    0.07670000
opls_642-1    C    0.41472011    0.61063938    0.42851024    0.43690000
opls_700-2    C    0.57466984    0.38606936    0.51377986    -0.10250000
opls_166-3    C    0.71911947    0.47895940    0.59883094    0.24900000
opls_142-4    C    0.56332991    0.03745018    0.42485037    0.08010000
opls_642-5    C    0.38142940    0.80298953    0.44907950    0.40570000
opls_700-6    C    0.61504971    0.18929983    0.46498068    -0.19000000
opls_166-7    C    0.52399967    0.24102992    0.42915130    0.24940000
opls_142-8    C    0.96189996    0.52886958    0.59917187    0.08550000
opls_642-9    C    0.19208015    0.58004987    0.47128929    0.43680000
opls_700-10    C    0.81128956    0.42767973    0.58297055    -0.12490000
opls_166-11    C    0.75810962    0.28226943    0.54563176    0.24600000
opls_750-12    N    0.50681948    0.55666961    0.42256004    -0.35540000
opls_641-13    N    0.27728993    0.52656923    0.44817910    -0.30550000
opls_750-14    N    0.43517905    0.94909916    0.46019896    -0.35130000
opls_641-15    N    0.46617988    0.74842961    0.42631024    -0.30470000
opls_750-16    N    0.04772952    0.48873980    0.48793060    -0.35580000
opls_641-17    N    0.24456934    0.71863929    0.47369035    -0.30570000
opls_167-18    O    0.77446973    0.62244916    0.71005181    -0.40680000
opls_167-19    O    0.38446992    0.14604968    0.30056938    -0.46850000
opls_167-20    O    0.84382975    0.22693937    0.60631094    -0.40720000
opls_144-21    H    0.37400030    0.37256006    0.61288179    0.12190000
opls_168-22    H    0.71304023    0.64859980    0.86223928    0.36590000
opls_144-23    H    0.63606052    0.00100019    0.38330973    0.10800000
opls_168-24    H    0.33037996    0.18685000    0.19255963    0.36590000
opls_144-25    H    0.99954999    0.63884915    0.68662109    0.10910000
opls_168-26    H    0.92694996    0.28843962    0.80338130    0.34140000
