#======================================================================
# Crystal Data Generated By AuToFF
#----------------------------------------------------------------------

data_AuToFF_phase_1

_cell_length_a                         19.7782
_cell_length_b                         19.7782
_cell_length_c                         3.7839
_cell_angle_alpha                      90.00
_cell_angle_beta                       90.00
_cell_angle_gamma                      120.00
_symmetry_space_group_name_H-M_alt     'P 1'
_symmetry_space_group_IT_number        1

loop_
_space_group_symop_operation_xyz
   'x, y, z'

loop_
   _atom_site_label
   _atom_site_type_symbol
   _atom_site_fract_x
   _atom_site_fract_y
   _atom_site_fract_z
   _atom_site_charge
opls_166-0    C    0.31301996    0.57863014    0.05911097    0.28510000
opls_166-1    C    0.42136979    0.73438998    0.05911097    0.28510000
opls_166-2    C    0.26560975    0.68697988    0.05911097    0.28510000
opls_700-3    C    0.24730034    0.59708017    0.04498005    -0.06570000
opls_700-4    C    0.40291988    0.65021993    0.04498005    -0.06570000
opls_700-5    C    0.34977979    0.75269990    0.04498005    -0.06570000
opls_716-6    C    0.62352986    0.56907993    0.41606015    0.32370000
opls_716-7    C    0.43091991    0.05444986    0.41606015    0.32370000
opls_716-8    C    0.94555023    0.37647022    0.41606015    0.32370000
opls_166-9    C    0.74313007    0.40332033    0.00373953    0.27630000
opls_166-10    C    0.59667998    0.33981009    0.00373953    0.27630000
opls_166-11    C    0.66019025    0.25687016    0.00373953    0.27630000
opls_700-12    C    0.73458974    0.32277992    0.01484976    -0.06410000
opls_700-13    C    0.67722004    0.41181031    0.01484976    -0.06410000
opls_700-14    C    0.58818971    0.26540977    0.01484976    -0.06410000
opls_716-15    C    0.34913009    0.93019029    0.63161024    0.31490000
opls_716-16    C    0.06981016    0.41893998    0.63161024    0.31490000
opls_716-17    C    0.58106003    0.65087031    0.63161024    0.31490000
opls_142-18    C    0.67814018    0.49388035    0.09155105    0.04020000
opls_142-19    C    0.50612007    0.18425984    0.09155105    0.04020000
opls_142-20    C    0.81573975    0.32185981    0.09155105    0.04020000
opls_142-21    C    0.37180039    0.83355032    0.96220038    0.03070000
opls_142-22    C    0.16644977    0.53824988    0.96220038    0.03070000
opls_142-23    C    0.46175013    0.62820038    0.96220038    0.03070000
opls_750-24    N    0.55983010    0.56371983    0.60692936    -0.33610000
opls_750-25    N    0.43627990    0.99610997    0.60692936    -0.33610000
opls_750-26    N    0.00388999    0.44017020    0.60692936    -0.33610000
opls_750-27    N    0.68067018    0.64833009    0.32547900    -0.28730000
opls_750-28    N    0.35167011    0.03233982    0.32547900    -0.28730000
opls_750-29    N    0.96766021    0.31933010    0.32547900    -0.28730000
opls_238-30    N    0.65283988    0.69568997    0.46314120    -0.19790000
opls_238-31    N    0.30430998    0.95715016    0.46314120    -0.19790000
opls_238-32    N    0.04285014    0.34715987    0.46314120    -0.19790000
opls_750-33    N    0.62562009    0.49611990    0.30972013    -0.31840000
opls_750-34    N    0.50387994    0.12949998    0.30972013    -0.31840000
opls_750-35    N    0.87049997    0.37438012    0.30972013    -0.31830000
opls_750-36    N    0.32233012    0.84907014    0.77476942    -0.31650000
opls_750-37    N    0.15093020    0.47326023    0.77476942    -0.31640000
opls_750-38    N    0.52673997    0.67767021    0.77476942    -0.31650000
opls_167-39    O    0.52071011    0.35133013    0.00457993    -0.29200000
opls_167-40    O    0.64866999    0.16937990    0.00457993    -0.29200000
opls_167-41    O    0.83061990    0.47928998    0.00457993    -0.29200000
opls_167-42    O    0.29699004    0.49590038    0.08087952    -0.36720000
opls_167-43    O    0.50410004    0.80109023    0.08087952    -0.36730000
opls_167-44    O    0.19891021    0.70300997    0.08087952    -0.36730000
opls_910-45    H    0.68123001    0.76059029    0.43342054    0.21710000
opls_910-46    H    0.23941015    0.92064008    0.43342054    0.21710000
opls_910-47    H    0.07936013    0.31877021    0.43342054    0.21710000
opls_144-48    H    0.72628033    0.55127034    0.02627976    0.11260000
opls_144-49    H    0.44873014    0.17501030    0.02627976    0.11260000
opls_144-50    H    0.82498983    0.27371993    0.02627976    0.11260000
opls_168-51    H    0.46415030    0.29960031    0.03726050    0.30830000
opls_168-52    H    0.70039996    0.16454991    0.03726050    0.30830000
opls_168-53    H    0.83545003    0.53585036    0.03726050    0.30830000
opls_144-54    H    0.43473984    0.88374993    0.02001110    0.02900000
opls_144-55    H    0.11625003    0.55099011    0.02001110    0.02900000
opls_144-56    H    0.44901014    0.56525996    0.02001110    0.02900000
opls_168-57    H    0.24053030    0.45488025    0.18460054    0.30730000
opls_168-58    H    0.54512015    0.78565040    0.18460054    0.30730000
opls_168-59    H    0.21434985    0.75946993    0.18460054    0.30730000
