#======================================================================
# Crystal Data Generated By AuToFF
#----------------------------------------------------------------------

data_AuToFF_phase_1

_cell_length_a                         28.9100
_cell_length_b                         28.9100
_cell_length_c                         3.4000
_cell_angle_alpha                      90.00
_cell_angle_beta                       90.00
_cell_angle_gamma                      120.00
_symmetry_space_group_name_H-M_alt     'P 1'
_symmetry_space_group_IT_number        1

loop_
_space_group_symop_operation_xyz
   'x, y, z'

loop_
   _atom_site_label
   _atom_site_type_symbol
   _atom_site_fract_x
   _atom_site_fract_y
   _atom_site_fract_z
   _atom_site_charge
opls_145-0    C    0.30081996    0.61141025    0.55875882    -0.11100000
opls_700-1    C    0.38067000    0.59879002    0.49892941    0.05730000
opls_145-2    C    0.43222988    0.61974998    0.33655000    -0.13550000
opls_145-3    C    0.45398997    0.58720028    0.26902059    -0.15220000
opls_700-4    C    0.42424018    0.53240012    0.34675882    0.05190000
opls_145-5    C    0.37322000    0.51085023    0.50980000    -0.13090000
opls_145-6    C    0.35208988    0.54384008    0.59342059    -0.14920000
opls_700-7    C    0.35642009    0.63357004    0.55077941    0.05770000
opls_142-8    C    0.55463996    0.50261994    0.75852941    0.03250000
opls_145-9    C    0.38859029    0.68941026    0.55875882    -0.10650000
opls_700-10    C    0.40121024    0.78188019    0.49892941    0.05740000
opls_145-11    C    0.38026004    0.81247995    0.33655000    -0.13550000
opls_145-12    C    0.41280007    0.86679003    0.26902059    -0.15220000
opls_700-13    C    0.46760003    0.89185035    0.34675882    0.05190000
opls_145-14    C    0.48915013    0.86237014    0.50980000    -0.13320000
opls_145-15    C    0.45616003    0.80825018    0.59342059    -0.14920000
opls_700-16    C    0.36642997    0.72285025    0.55077941    0.05770000
opls_142-17    C    0.49738004    0.05201985    0.75852941    0.01840000
opls_145-18    C    0.31059014    0.69918029    0.55875882    -0.11100000
opls_700-19    C    0.21811996    0.61933019    0.49892941    0.05730000
opls_145-20    C    0.18752011    0.56777007    0.33655000    -0.13550000
opls_145-21    C    0.13321017    0.54601009    0.26902059    -0.14520000
opls_700-22    C    0.10815010    0.57575991    0.34675882    0.05190000
opls_145-23    C    0.13763007    0.62678003    0.50980000    -0.13320000
opls_145-24    C    0.19174995    0.64791014    0.59342059    -0.14920000
opls_700-25    C    0.27715014    0.64358011    0.55077941    0.05770000
opls_142-26    C    0.94798000    0.44536021    0.75852941    0.01840000
opls_145-27    C    0.69918024    0.38859015    0.44124118    -0.10650000
opls_700-28    C    0.61934003    0.40120998    0.50107059    0.05730000
opls_145-29    C    0.56776992    0.38026001    0.66345000    -0.13830000
opls_145-30    C    0.54601023    0.41280012    0.73097941    -0.15220000
opls_700-31    C    0.57576002    0.46760028    0.65324118    0.05190000
opls_145-32    C    0.62678020    0.48915017    0.49020000    -0.13090000
opls_145-33    C    0.64791012    0.45615992    0.40657941    -0.14920000
opls_700-34    C    0.64357991    0.36642996    0.44922059    0.05760000
opls_142-35    C    0.44536004    0.49738006    0.24147059    0.03250000
opls_145-36    C    0.61140991    0.31059014    0.44124118    -0.11100000
opls_700-37    C    0.59878996    0.21812021    0.50107059    0.05730000
opls_145-38    C    0.61974999    0.18752005    0.66345000    -0.13550000
opls_145-39    C    0.58719993    0.13320997    0.73097941    -0.15210000
opls_700-40    C    0.53240017    0.10815005    0.65324118    0.05190000
opls_145-41    C    0.51084987    0.13762986    0.49020000    -0.13320000
opls_145-42    C    0.54384017    0.19175022    0.40657941    -0.14910000
opls_700-43    C    0.63357023    0.27715015    0.44922059    0.05780000
opls_142-44    C    0.50261996    0.94798015    0.24147059    0.01840000
opls_145-45    C    0.68941006    0.30082011    0.44124118    -0.11100000
opls_700-46    C    0.78188024    0.38067021    0.50107059    0.05730000
opls_145-47    C    0.81247989    0.43222993    0.66345000    -0.13550000
opls_145-48    C    0.86679987    0.45398991    0.73097941    -0.14520000
opls_700-49    C    0.89184990    0.42424009    0.65324118    0.05190000
opls_145-50    C    0.86236993    0.37321997    0.49020000    -0.13320000
opls_145-51    C    0.80825005    0.35208986    0.40657941    -0.14920000
opls_700-52    C    0.72284986    0.35641989    0.44922059    0.05770000
opls_142-53    C    0.05202020    0.55464019    0.24147059    0.01840000
opls_146-54    H    0.45529992    0.66052996    0.23747941    0.08380000
opls_146-55    H    0.31383990    0.52589010    0.73907059    0.10030000
opls_146-56    H    0.49326007    0.60441015    0.13717059    0.09750000
opls_146-57    H    0.35008986    0.46867989    0.57797941    0.09930000
opls_146-58    H    0.43115021    0.70688016    0.55985000    0.08030000
opls_144-59    H    0.57675999    0.54466008    0.68479118    0.08410000
opls_146-60    H    0.33947010    0.79477002    0.23747941    0.08260000
opls_146-61    H    0.47410993    0.78795005    0.73907059    0.10020000
opls_146-62    H    0.39558998    0.88884997    0.13717059    0.09750000
opls_146-63    H    0.53132022    0.88142010    0.57797941    0.09930000
opls_146-64    H    0.29312006    0.72426018    0.55985000    0.20590000
opls_144-65    H    0.45533985    0.03209996    0.68479118    0.08420000
opls_146-66    H    0.20522998    0.54470002    0.23747941    0.08370000
opls_146-67    H    0.21205003    0.68616025    0.73907059    0.10020000
opls_146-68    H    0.11115015    0.50674028    0.13717059    0.09740000
opls_146-69    H    0.11858004    0.64990999    0.57797941    0.09740000
opls_146-70    H    0.27573996    0.56886007    0.55985000    0.20590000
opls_144-71    H    0.96789981    0.42323996    0.68479118    0.08420000
opls_146-72    H    0.54470008    0.33947004    0.76252059    0.08790000
opls_146-73    H    0.68616010    0.47410990    0.26092941    0.10020000
opls_146-74    H    0.50674013    0.39559025    0.86282941    0.09740000
opls_146-75    H    0.64991014    0.53132011    0.42202059    0.09930000
opls_146-76    H    0.56886002    0.29312024    0.44015000    0.20590000
opls_144-77    H    0.42324001    0.45533992    0.31520882    0.08410000
opls_146-78    H    0.66052990    0.20522998    0.76252059    0.08380000
opls_146-79    H    0.52589007    0.21204995    0.26092941    0.10020000
opls_146-80    H    0.60441002    0.11115003    0.86282941    0.09740000
opls_146-81    H    0.46867978    0.11857990    0.42202059    0.09930000
opls_146-82    H    0.70688014    0.27574022    0.44015000    0.20590000
opls_144-83    H    0.54466015    0.96790004    0.31520882    0.08410000
opls_146-84    H    0.79478005    0.45529998    0.76252059    0.10220000
opls_146-85    H    0.78795017    0.31384015    0.26092941    0.10480000
opls_146-86    H    0.88885005    0.49326012    0.86282941    0.09740000
opls_146-87    H    0.88141996    0.35009001    0.42202059    0.09750000
opls_146-88    H    0.72425984    0.43114992    0.44015000    0.08030000
opls_144-89    H    0.03210019    0.57676004    0.31520882    0.08410000
opls_750-90    N    0.49014013    0.51659019    0.05547059    -0.14570000
opls_750-91    N    0.48341014    0.97355012    0.05547059    -0.14570000
opls_750-92    N    0.02644993    0.50986009    0.05547059    -0.14570000
opls_750-93    N    0.50986007    0.48341021    0.94452941    -0.14560000
opls_750-94    N    0.51658986    0.02644988    0.94452941    -0.14570000
opls_750-95    N    0.97355007    0.49013991    0.94452941    -0.14570000
