#======================================================================
# Crystal Data Generated By AuToFF
#----------------------------------------------------------------------

data_AuToFF_phase_1

_cell_length_a                         25.0222
_cell_length_b                         25.0222
_cell_length_c                         4.1500
_cell_angle_alpha                      90.00
_cell_angle_beta                       90.00
_cell_angle_gamma                      120.00
_symmetry_space_group_name_H-M_alt     'P 1'
_symmetry_space_group_IT_number        1

loop_
_space_group_symop_operation_xyz
   'x, y, z'

loop_
   _atom_site_label
   _atom_site_type_symbol
   _atom_site_fract_x
   _atom_site_fract_y
   _atom_site_fract_z
   _atom_site_charge
opls_700-0    C    0.36830022    0.63817025    0.90295904    0.02130000
opls_145-1    C    0.40400985    0.60824989    0.96313976    0.03540000
opls_145-2    C    0.39005986    0.57164006    0.19300000    -0.23970000
opls_145-3    C    0.41909002    0.53921991    0.24338072    -0.23830000
opls_145-4    C    0.46568012    0.54572988    0.07351084    0.14540000
opls_145-5    C    0.48083002    0.58349985    0.84921928    -0.23890000
opls_145-6    C    0.44963020    0.61345020    0.79120000    -0.23940000
opls_142-7    C    0.49048991    0.47741979    0.31028916    0.08170000
opls_145-8    C    0.52812012    0.44937992    0.32666988    0.00700000
opls_145-9    C    0.51466995    0.40435010    0.51841928    -0.24050000
opls_145-10    C    0.54881996    0.37615979    0.53288916    -0.24120000
opls_145-11    C    0.59750019    0.39311006    0.35785060    0.02620000
opls_145-12    C    0.61148017    0.43871995    0.16833976    -0.24060000
opls_145-13    C    0.57699015    0.46647002    0.15200000    -0.24060000
opls_145-14    C    0.63295979    0.36252980    0.36858072    0.06150000
opls_145-15    C    0.69568005    0.39584012    0.36918072    -0.14810000
opls_700-16    C    0.39674998    0.70157998    0.89314940    0.10120000
opls_148-17    C    0.46455994    0.73852992    0.86982892    -0.47010000
opls_700-18    C    0.36182999    0.73013024    0.90295904    0.02130000
opls_145-19    C    0.39174989    0.79576010    0.96313976    0.03540000
opls_145-20    C    0.42836027    0.81842015    0.19300000    -0.23970000
opls_145-21    C    0.46078010    0.87987001    0.24338072    -0.23830000
opls_145-22    C    0.45427012    0.91995011    0.07351084    0.14540000
opls_145-23    C    0.41650007    0.89733021    0.84921928    -0.23890000
opls_145-24    C    0.38654993    0.83617984    0.79120000    -0.23940000
opls_142-25    C    0.52258007    0.01307023    0.31028916    0.08160000
opls_145-26    C    0.55061990    0.07873978    0.32666988    0.00700000
opls_145-27    C    0.59565007    0.11032005    0.51841928    -0.24050000
opls_145-28    C    0.62383994    0.17266009    0.53288916    -0.24120000
opls_145-29    C    0.60688997    0.20438988    0.35785060    0.02620000
opls_145-30    C    0.56128000    0.17276023    0.16833976    -0.24060000
opls_145-31    C    0.53353003    0.11051986    0.15200000    -0.24060000
opls_145-32    C    0.63747019    0.27042999    0.36858072    0.06150000
opls_145-33    C    0.60415982    0.29983996    0.36918072    -0.14810000
opls_700-34    C    0.29841994    0.69517016    0.89314940    0.10120000
opls_148-35    C    0.26147001    0.72603007    0.86982892    -0.47010000
opls_700-36    C    0.26987002    0.63169997    0.90295904    0.02130000
opls_145-37    C    0.20423986    0.59599001    0.96313976    0.03540000
opls_145-38    C    0.18157987    0.60993980    0.19300000    -0.23960000
opls_145-39    C    0.12012989    0.58091008    0.24338072    -0.23830000
opls_145-40    C    0.08005016    0.53432002    0.07351084    0.14540000
opls_145-41    C    0.10266991    0.51916994    0.84921928    -0.23880000
opls_145-42    C    0.16381987    0.55036996    0.79120000    -0.23930000
opls_142-43    C    0.98693002    0.50950998    0.31028916    0.08160000
opls_145-44    C    0.92125975    0.47187984    0.32666988    0.00700000
opls_145-45    C    0.88967998    0.48532985    0.51841928    -0.24050000
opls_145-46    C    0.82734011    0.45118012    0.53288916    -0.24120000
opls_145-47    C    0.79560984    0.40250006    0.35785060    0.02620000
opls_145-48    C    0.82723982    0.38851982    0.16833976    -0.24060000
opls_145-49    C    0.88948022    0.42301012    0.15200000    -0.24060000
opls_145-50    C    0.72957001    0.36704021    0.36858072    0.06150000
opls_145-51    C    0.70016013    0.30431992    0.36918072    -0.14810000
opls_700-52    C    0.30483008    0.60324986    0.89314940    0.10120000
opls_148-53    C    0.27397005    0.53544001    0.86982892    -0.46980000
opls_750-54    N    0.49870002    0.51522022    0.11857108    -0.19630000
opls_750-55    N    0.48478009    0.98347982    0.11857108    -0.19620000
opls_750-56    N    0.01651989    0.50129996    0.11857108    -0.19630000
opls_146-57    H    0.60929006    0.08674998    0.65622892    0.20070000
opls_146-58    H    0.65849006    0.19608987    0.68253976    0.20060000
opls_146-59    H    0.54804004    0.19635983    0.02868916    0.20070000
opls_146-60    H    0.49903997    0.08743019    0.00144096    0.20010000
opls_146-61    H    0.43317004    0.78837011    0.33013976    0.20070000
opls_146-62    H    0.48983030    0.89491026    0.41739036    0.20070000
opls_146-63    H    0.41154022    0.92755006    0.71390120    0.20060000
opls_146-64    H    0.36091003    0.82121020    0.60706024    0.20070000
opls_144-65    H    0.53512994    0.99068014    0.45880964    0.09420000
opls_146-66    H    0.72611015    0.28185000    0.36632048    0.20020000
opls_702-67    H    0.27104003    0.75706996    0.04220964    0.13280000
opls_702-68    H    0.21263992    0.69539997    0.86111084    0.08890000
opls_702-69    H    0.27113027    0.75033018    0.67585060    0.13300000
opls_146-70    H    0.91324987    0.52254006    0.65622892    0.20070000
opls_146-71    H    0.80390976    0.46239985    0.68253976    0.20050000
opls_146-72    H    0.80364020    0.35168017    0.02868916    0.20070000
opls_146-73    H    0.91257017    0.41160995    0.00144096    0.20010000
opls_146-74    H    0.21163006    0.64480020    0.33013976    0.20060000
opls_146-75    H    0.10508995    0.59491986    0.41739036    0.20080000
opls_146-76    H    0.07245006    0.48399021    0.71390120    0.20060000
opls_146-77    H    0.17878998    0.53969984    0.60706024    0.20070000
opls_144-78    H    0.00932017    0.54445022    0.45880964    0.09420000
opls_146-79    H    0.71814989    0.44425991    0.36632048    0.20020000
opls_702-80    H    0.24292993    0.51397009    0.04220964    0.13280000
opls_702-81    H    0.30460001    0.51724007    0.86111084    0.08880000
opls_702-82    H    0.24966986    0.52079986    0.67585060    0.13300000
opls_146-83    H    0.47746007    0.39070995    0.65622892    0.20070000
opls_146-84    H    0.53759995    0.34150982    0.68253976    0.20050000
opls_146-85    H    0.64832016    0.45196000    0.02868916    0.20080000
opls_146-86    H    0.58838987    0.50095986    0.00144096    0.20010000
opls_146-87    H    0.35520013    0.56683015    0.33013976    0.20060000
opls_146-88    H    0.40507975    0.51016989    0.41739036    0.20080000
opls_146-89    H    0.51600996    0.58846019    0.71390120    0.20060000
opls_146-90    H    0.46029999    0.63908996    0.60706024    0.20070000
opls_144-91    H    0.45555012    0.46487010    0.45880964    0.09430000
opls_146-92    H    0.55573996    0.27389009    0.36632048    0.20020000
opls_702-93    H    0.48603004    0.72895995    0.04220964    0.13280000
opls_702-94    H    0.48276007    0.78735996    0.86111084    0.08880000
opls_702-95    H    0.47919987    0.72886996    0.67585060    0.13300000
