#======================================================================
# Crystal Data Generated By AuToFF
#----------------------------------------------------------------------

data_AuToFF_phase_1

_cell_length_a                         27.0900
_cell_length_b                         27.0800
_cell_length_c                         3.5000
_cell_angle_alpha                      89.45
_cell_angle_beta                       90.33
_cell_angle_gamma                      119.10
_symmetry_space_group_name_H-M_alt     'P 1'
_symmetry_space_group_IT_number        1

loop_
_space_group_symop_operation_xyz
   'x, y, z'

loop_
   _atom_site_label
   _atom_site_type_symbol
   _atom_site_fract_x
   _atom_site_fract_y
   _atom_site_fract_z
   _atom_site_charge
opls_281-0    O    0.28918995    0.55648013    0.97195015    -0.28110000
opls_281-1    O    0.43844000    0.73225005    0.96556985    -0.27940000
opls_281-2    O    0.26393020    0.70906010    0.95912956    -0.31190000
opls_281-3    O    0.70864012    0.44153005    0.99839993    -0.28120000
opls_281-4    O    0.56130013    0.26467997    0.99333970    -0.27940000
opls_281-5    O    0.73701999    0.29082985    0.02302105    -0.27940000
opls_750-6    N    0.38394002    0.57490987    0.99876852    -0.11910000
opls_750-7    N    0.41853020    0.80892012    0.94580895    -0.11710000
opls_238-8    N    0.19002020    0.61449008    0.96067820    -0.22270000
opls_238-9    N    0.61266989    0.42077007    0.01152053    -0.22090000
opls_238-10    N    0.58297990    0.18831000    0.99653984    -0.22240000
opls_750-11    N    0.80962014    0.38697995    0.99548837    -0.12210000
opls_520-12    N    0.58722002    0.56736995    0.93257978    -0.13550000
opls_750-13    N    0.40789012    0.96698006    0.99079958    -0.15380000
opls_750-14    N    0.97239991    0.40099022    0.10061031    -0.26470000
opls_280-15    C    0.30957006    0.60731991    0.96945003    0.29690000
opls_142-16    C    0.40143005    0.62726019    0.98553934    0.12160000
opls_145-17    C    0.41601010    0.55234996    0.01224056    0.18450000
opls_523-18    C    0.46925997    0.58317017    0.96302974    -0.17640000
opls_522-19    C    0.49993012    0.55809999    0.98374783    -0.02020000
opls_523-20    C    0.47651008    0.50315006    0.04771075    -0.01110000
opls_145-21    C    0.42197982    0.47300986    0.09286996    -0.15640000
opls_145-22    C    0.39171009    0.49769010    0.07974079    -0.15630000
opls_145-23    C    0.36535999    0.64487011    0.97115868    -0.07680000
opls_280-24    C    0.38824991    0.70244010    0.96686991    0.29790000
opls_142-25    C    0.36704999    0.77536991    0.95155779    0.12160000
opls_145-26    C    0.44152993    0.86341007    0.93450843    0.20070000
opls_145-27    C    0.41135995    0.88810022    0.96858999    -0.19470000
opls_145-28    C    0.43856007    0.94360027    0.95358931    0.15750000
opls_145-29    C    0.49358996    0.97222993    0.89894967    -0.00800000
opls_145-30    C    0.52238015    0.94515009    0.86356805    -0.15640000
opls_145-31    C    0.49599997    0.89053021    0.87906019    -0.15630000
opls_145-32    C    0.35057007    0.72163027    0.96088964    -0.07680000
opls_280-33    C    0.29410000    0.68813008    0.96246971    0.23570000
opls_142-34    C    0.22316987    0.59519987    0.96692992    0.12410000
opls_145-35    C    0.13635005    0.58519001    0.96695849    0.17850000
opls_145-36    C    0.11210001    0.53111002    0.01496068    -0.17580000
opls_145-37    C    0.05717017    0.50395012    0.01572929    -0.01070000
opls_145-38    C    0.02909995    0.53152018    0.95674945    0.03090000
opls_145-39    C    0.05559015    0.58682019    0.90221839    -0.15640000
opls_145-40    C    0.10952016    0.61367993    0.90777864    -0.15780000
opls_145-41    C    0.27598977    0.63126986    0.96695849    -0.07570000
opls_280-42    C    0.68891000    0.39079007    0.00010858    0.29640000
opls_142-43    C    0.59668003    0.36899982    0.00838895    0.12410000
opls_523-44    C    0.57789000    0.43996018    0.02688980    0.17850000
opls_145-45    C    0.52493988    0.40616018    0.10059888    -0.15780000
opls_523-46    C    0.49096987    0.42644986    0.10943929    -0.15620000
opls_522-47    C    0.51075987    0.48079008    0.04903938    -0.01900000
opls_521-48    C    0.56460990    0.51397986    0.98005909    0.15240000
opls_522-49    C    0.59921994    0.49362992    0.97033864    -0.19560000
opls_145-50    C    0.63351988    0.35249007    0.00066003    -0.07680000
opls_280-51    C    0.61136985    0.29516989    0.99719987    0.29700000
opls_142-52    C    0.63411997    0.22337003    0.99978856    0.12420000
opls_145-53    C    0.56329990    0.13408004    0.98389926    0.19690000
opls_145-54    C    0.59599990    0.11156005    0.93183974    -0.15630000
opls_145-55    C    0.57419004    0.05695003    0.92701952    -0.15640000
opls_145-56    C    0.51963992    0.02473007    0.96632989    -0.00600000
opls_145-57    C    0.48765982    0.04850987    0.00850896    -0.01380000
opls_145-58    C    0.50958015    0.10386996    0.02148098    -0.17480000
opls_145-59    C    0.64965008    0.27672015    0.00136006    -0.07680000
opls_280-60    C    0.70613004    0.31079986    0.00996903    0.29690000
opls_142-61    C    0.77498981    0.40421988    0.99376829    0.12170000
opls_145-62    C    0.86258995    0.42062011    0.99015955    0.18680000
opls_145-63    C    0.88374004    0.47594995    0.94276024    -0.15620000
opls_145-64    C    0.93742014    0.50735011    0.94448889    -0.15710000
opls_145-65    C    0.96879005    0.48337007    0.99295968    0.03820000
opls_145-66    C    0.94545991    0.42746999    0.03899893    0.15390000
opls_145-67    C    0.89144011    0.39493991    0.03123857    -0.19730000
opls_145-68    C    0.72281011    0.36725023    0.00024858    -0.07680000
opls_521-69    C    0.55581006    0.58790013    0.96048962    0.12080000
opls_261-70    C    0.02836992    0.44729011    0.04455918    0.29350000
opls_261-71    C    0.43200006    0.01451005    0.03000137    0.37210000
opls_261-72    C    0.57937003    0.64393001    0.88648910    -0.02160000
opls_261-73    C    0.61554988    0.66514009    0.66953918    0.03830000
opls_143-74    C    0.63786003    0.71791016    0.58829832    -0.28110000
opls_144-75    H    0.44874008    0.65816003    0.98647938    0.02980000
opls_526-76    H    0.48795993    0.63037994    0.90405847    0.05040000
opls_146-77    H    0.34413001    0.47218003    0.12648864    0.05040000
opls_144-78    H    0.33564024    0.79200014    0.94860908    0.02980000
opls_146-79    H    0.36371014    0.86184027    0.00921756    0.05040000
opls_146-80    H    0.52006022    0.86609029    0.84459004    0.05040000
opls_144-81    H    0.20613995    0.54754001    0.97227873    0.02980000
opls_146-82    H    0.13874003    0.50932009    0.05417962    0.05040000
opls_910-83    H    0.20660016    0.66088008    0.94861765    0.29250000
opls_146-84    H    0.13314991    0.66143017    0.86171939    0.05040000
opls_144-85    H    0.54964009    0.33707995    0.01242914    0.02980000
opls_146-86    H    0.50940007    0.35933992    0.15602999    0.05040000
opls_910-87    H    0.65844016    0.45186003    0.00076861    0.29250000
opls_525-88    H    0.64607002    0.52291008    0.91379034    0.05040000
opls_144-89    H    0.66686027    0.20843019    0.00136006    0.02980000
opls_146-90    H    0.64340021    0.13989024    0.89100930    0.05040000
opls_910-91    H    0.55108984    0.20281985    0.00468021    0.29250000
opls_146-92    H    0.48099982    0.12331989    0.06484011    0.05040000
opls_144-93    H    0.79018013    0.45156020    0.98660796    0.02980000
opls_146-94    H    0.85419992    0.49445985    0.90174979    0.05040000
opls_146-95    H    0.87291994    0.34721005    0.05995988    0.05040000
opls_146-96    H    0.60259012    0.03719016    0.88856919    0.05040000
opls_526-97    H    0.44417005    0.39742000    0.16919916    0.05040000
opls_146-98    H    0.57007000    0.96975996    0.81976890    0.05040000
opls_146-99    H    0.03031994    0.60982012    0.85121891    0.05040000
opls_146-100    H    0.40177989    0.42546987    0.14316083    0.05040000
opls_146-101    H    0.95675028    0.55501027    0.90435848    0.05040000
opls_144-102    H    0.67929017    0.73982026    0.42299077    0.11550000
opls_144-103    H    0.61628009    0.74294999    0.68134829    0.11550000
