#======================================================================
# Crystal Data Generated By AuToFF
#----------------------------------------------------------------------

data_AuToFF_phase_1

_cell_length_a                         29.9768
_cell_length_b                         29.9768
_cell_length_c                         4.0500
_cell_angle_alpha                      90.00
_cell_angle_beta                       90.00
_cell_angle_gamma                      120.00
_symmetry_space_group_name_H-M_alt     'P 1'
_symmetry_space_group_IT_number        1

loop_
_space_group_symop_operation_xyz
   'x, y, z'

loop_
   _atom_site_label
   _atom_site_type_symbol
   _atom_site_fract_x
   _atom_site_fract_y
   _atom_site_fract_z
   _atom_site_charge
opls_140-0    H    0.33610003    0.32400011    0.78180000    0.10590000
opls_140-1    H    0.67600002    0.01209984    0.78180000    0.10590000
opls_140-2    H    0.98789996    0.66390005    0.78180000    0.10590000
opls_140-3    H    0.66389997    0.67599989    0.78180000    0.10590000
opls_140-4    H    0.32399998    0.98790016    0.78180000    0.10600000
opls_140-5    H    0.01210004    0.33609995    0.78180000    0.10590000
opls_140-6    H    0.66389997    0.67599989    0.21820000    0.10590000
opls_140-7    H    0.32399998    0.98790016    0.21820000    0.10590000
opls_140-8    H    0.01210004    0.33609995    0.21820000    0.10590000
opls_140-9    H    0.33610003    0.32400011    0.21820000    0.10590000
opls_140-10    H    0.67600002    0.01209984    0.21820000    0.10590000
opls_140-11    H    0.98789996    0.66390005    0.21820000    0.10590000
opls_185-12    H    0.42469976    0.34719982    0.22440000    0.07880000
opls_185-13    H    0.65279983    0.07749993    0.22440000    0.07880000
opls_185-14    H    0.92249988    0.57529987    0.22440000    0.07880000
opls_185-15    H    0.57530024    0.65280018    0.22440000    0.07880000
opls_185-16    H    0.34720017    0.92250007    0.22440000    0.07890000
opls_185-17    H    0.07750012    0.42470013    0.22440000    0.07880000
opls_185-18    H    0.57530024    0.65280018    0.77560000    0.07880000
opls_185-19    H    0.34720017    0.92250007    0.77560000    0.07880000
opls_185-20    H    0.07750012    0.42470013    0.77560000    0.07880000
opls_185-21    H    0.42469976    0.34719982    0.77560000    0.07890000
opls_185-22    H    0.65279983    0.07749993    0.77560000    0.07880000
opls_185-23    H    0.92249988    0.57529987    0.77560000    0.07880000
opls_140-24    H    0.65430010    0.72140010    0.00000000    0.10010000
opls_140-25    H    0.27860008    0.93290004    0.00000000    0.10010000
opls_140-26    H    0.06709982    0.34569986    0.00000000    0.10010000
opls_140-27    H    0.34569990    0.27859990    0.00000000    0.10010000
opls_140-28    H    0.72139992    0.06709996    0.00000000    0.10010000
opls_140-29    H    0.93290018    0.65430014    0.00000000    0.10010000
opls_146-30    H    0.58800018    0.52490017    0.00000000    0.21520000
opls_146-31    H    0.47510005    0.06310007    0.00000000    0.21520000
opls_146-32    H    0.93689997    0.41200015    0.00000000    0.21520000
opls_146-33    H    0.41199982    0.47509983    0.00000000    0.21520000
opls_146-34    H    0.52489995    0.93689993    0.00000000    0.21520000
opls_146-35    H    0.06310003    0.58799985    0.00000000    0.21520000
opls_910-36    H    0.39080000    0.52619982    0.00000000    0.23710000
opls_910-37    H    0.47380018    0.86460018    0.00000000    0.23710000
opls_910-38    H    0.13540015    0.60919999    0.00000000    0.23710000
opls_910-39    H    0.60920000    0.47380018    0.00000000    0.23710000
opls_910-40    H    0.52619982    0.13539982    0.00000000    0.23710000
opls_910-41    H    0.86459985    0.39080001    0.00000000    0.23710000
opls_146-42    H    0.26709983    0.57759988    0.00000000    0.21510000
opls_146-43    H    0.42240001    0.68949992    0.00000000    0.21510000
opls_146-44    H    0.31050016    0.73290019    0.00000000    0.21510000
opls_146-45    H    0.73290017    0.42240012    0.00000000    0.21510000
opls_146-46    H    0.57759999    0.31050008    0.00000000    0.21510000
opls_146-47    H    0.68950003    0.26710019    0.00000000    0.21510000
opls_144-48    H    0.32950001    0.55060020    0.00000000    0.10520000
opls_144-49    H    0.44940011    0.77890016    0.00000000    0.10520000
opls_144-50    H    0.22110007    0.67050003    0.00000000    0.10520000
opls_144-51    H    0.67050018    0.44940019    0.00000000    0.10520000
opls_144-52    H    0.55059989    0.22109984    0.00000000    0.10520000
opls_144-53    H    0.77889993    0.32949997    0.00000000    0.10520000
opls_145-54    C    0.38350026    0.67950018    0.00000000    -0.14100000
opls_145-55    C    0.32049994    0.70399994    0.00000000    -0.14100000
opls_145-56    C    0.29599980    0.61649988    0.00000000    -0.14100000
opls_145-57    C    0.61649974    0.32049982    0.00000000    -0.14100000
opls_145-58    C    0.67950006    0.29600006    0.00000000    -0.14100000
opls_145-59    C    0.70400020    0.38350012    0.00000000    -0.14100000
opls_145-60    C    0.37099987    0.71719990    0.00000000    0.01460000
opls_145-61    C    0.28279997    0.65380015    0.00000000    0.01460000
opls_145-62    C    0.34619982    0.62899994    0.00000000    0.01460000
opls_145-63    C    0.62900013    0.28280010    0.00000000    0.01460000
opls_145-64    C    0.71720003    0.34619985    0.00000000    0.01460000
opls_145-65    C    0.65380018    0.37100006    0.00000000    0.01460000
opls_166-66    C    0.46149989    0.44889982    0.00000000    0.19710000
opls_166-67    C    0.55109989    0.01259983    0.00000000    0.19710000
opls_166-68    C    0.98740002    0.53849997    0.00000000    0.19720000
opls_166-69    C    0.53850011    0.55110018    0.00000000    0.19710000
opls_166-70    C    0.44890011    0.98740017    0.00000000    0.19710000
opls_166-71    C    0.01259998    0.46150003    0.00000000    0.19710000
opls_145-72    C    0.45119996    0.48800012    0.00000000    -0.24250000
opls_145-73    C    0.51199989    0.96320010    0.00000000    -0.24260000
opls_145-74    C    0.03680001    0.54880017    0.00000000    -0.24250000
opls_145-75    C    0.54880004    0.51199988    0.00000000    -0.24260000
opls_145-76    C    0.48800011    0.03679990    0.00000000    -0.24260000
opls_145-77    C    0.96319999    0.45119983    0.00000000    -0.24260000
opls_234-78    C    0.46879976    0.57679983    0.00000000    0.37530000
opls_234-79    C    0.42320008    0.89200009    0.00000000    0.37530000
opls_234-80    C    0.10800016    0.53120008    0.00000000    0.37530000
opls_234-81    C    0.53120024    0.42320017    0.00000000    0.37540000
opls_234-82    C    0.57679992    0.10799991    0.00000000    0.37550000
opls_234-83    C    0.89199984    0.46879992    0.00000000    0.37540000
opls_700-84    C    0.48729988    0.53949994    0.00000000    -0.13700000
opls_700-85    C    0.46049991    0.94779988    0.00000000    -0.13700000
opls_700-86    C    0.05220021    0.51270017    0.00000000    -0.13700000
opls_700-87    C    0.51270012    0.46050006    0.00000000    -0.13700000
opls_700-88    C    0.53950009    0.05220012    0.00000000    -0.13690000
opls_700-89    C    0.94779979    0.48729983    0.00000000    -0.13700000
opls_142-90    C    0.35899983    0.58909997    0.00000000    0.02780000
opls_142-91    C    0.41090007    0.76990001    0.00000000    0.02780000
opls_142-92    C    0.23010010    0.64100002    0.00000000    0.02780000
opls_142-93    C    0.64100017    0.41090003    0.00000000    0.02780000
opls_142-94    C    0.58909993    0.23009999    0.00000000    0.02780000
opls_142-95    C    0.76989990    0.35899998    0.00000000    0.02780000
opls_182-96    C    0.59099990    0.64610004    0.00000000    0.06970000
opls_182-97    C    0.35390004    0.94490011    0.00000000    0.06970000
opls_182-98    C    0.05510005    0.40899984    0.00000000    0.06970000
opls_182-99    C    0.40900010    0.35389996    0.00000000    0.06970000
opls_182-100    C    0.64609996    0.05509989    0.00000000    0.06970000
opls_182-101    C    0.94489995    0.59100016    0.00000000    0.06970000
opls_135-102    C    0.64679997    0.68239995    0.00000000    -0.45170000
opls_135-103    C    0.31760004    0.96439999    0.00000000    -0.45180000
opls_135-104    C    0.03559999    0.35320005    0.00000000    -0.45180000
opls_135-105    C    0.35320003    0.31760005    0.00000000    -0.45180000
opls_135-106    C    0.68239996    0.03560001    0.00000000    -0.45170000
opls_135-107    C    0.96440001    0.64679995    0.00000000    -0.45180000
opls_179-108    O    0.58400004    0.59730007    0.00000000    -0.20480000
opls_179-109    O    0.40269984    0.98669988    0.00000000    -0.20480000
opls_179-110    O    0.01330012    0.41600005    0.00000000    -0.20480000
opls_179-111    O    0.41599996    0.40269993    0.00000000    -0.20480000
opls_179-112    O    0.59730016    0.01330012    0.00000000    -0.20470000
opls_179-113    O    0.98669988    0.58399995    0.00000000    -0.20480000
opls_236-114    O    0.49800008    0.62100015    0.00000000    -0.42050000
opls_236-115    O    0.37900003    0.87700009    0.00000000    -0.42040000
opls_236-116    O    0.12300008    0.50200014    0.00000000    -0.42050000
opls_236-117    O    0.50199992    0.37899985    0.00000000    -0.42050000
opls_236-118    O    0.62099997    0.12299991    0.00000000    -0.42040000
opls_236-119    O    0.87699992    0.49799986    0.00000000    -0.42050000
opls_238-120    N    0.41910013    0.56300011    0.00000000    -0.25800000
opls_238-121    N    0.43699993    0.85610002    0.00000000    -0.25810000
opls_238-122    N    0.14389994    0.58089988    0.00000000    -0.25810000
opls_238-123    N    0.58089987    0.43699989    0.00000000    -0.25810000
opls_238-124    N    0.56300007    0.14389998    0.00000000    -0.25800000
opls_238-125    N    0.85610006    0.41910012    0.00000000    -0.25810000
opls_750-126    N    0.40520010    0.59980001    0.00000000    -0.07110000
opls_750-127    N    0.40020000    0.80539986    0.00000000    -0.07110000
opls_750-128    N    0.19459990    0.59480013    0.00000000    -0.07110000
opls_750-129    N    0.59479990    0.40019999    0.00000000    -0.07110000
opls_750-130    N    0.59980000    0.19460014    0.00000000    -0.07110000
opls_750-131    N    0.80540010    0.40519987    0.00000000    -0.07110000
