#======================================================================
# Crystal Data Generated By AuToFF
#----------------------------------------------------------------------

data_AuToFF_phase_1

_cell_length_a                         23.4169
_cell_length_b                         3.5833
_cell_length_c                         23.1605
_cell_angle_alpha                      90.00
_cell_angle_beta                       120.00
_cell_angle_gamma                      90.00
_symmetry_space_group_name_H-M_alt     'P 1'
_symmetry_space_group_IT_number        1

loop_
_space_group_symop_operation_xyz
   'x, y, z'

loop_
   _atom_site_label
   _atom_site_type_symbol
   _atom_site_fract_x
   _atom_site_fract_y
   _atom_site_fract_z
   _atom_site_charge
opls_700-0    C    0.51066030    0.50000000    0.37244024    0.11800000
opls_145-1    C    0.47317017    0.50000000    0.40387026    -0.20570000
opls_700-2    C    0.50418002    0.50000000    0.47343997    0.11540000
opls_145-3    C    0.57279007    0.50000000    0.51181000    -0.20570000
opls_700-4    C    0.61056030    0.50000000    0.48065021    0.11950000
opls_145-5    C    0.57949012    0.50000000    0.41084019    -0.14900000
opls_261-6    C    0.46536979    0.50000000    0.50539995    -0.08230000
opls_261-7    C    0.68113993    0.50000000    0.52080012    -0.10250000
opls_261-8    C    0.47782984    0.50000000    0.30079003    -0.12490000
opls_261-9    C    0.74021997    0.50000000    0.55532023    -0.10490000
opls_261-10    C    0.43250028    0.50000000    0.53188022    -0.10370000
opls_261-11    C    0.44912016    0.50000000    0.24071000    -0.12490000
opls_700-12    C    0.39298028    0.50000000    0.56315019    0.11410000
opls_145-13    C    0.41459000    0.50000000    0.16901989    0.08450000
opls_145-14    C    0.32540987    0.50000000    0.52468992    -0.20640000
opls_145-15    C    0.28662008    0.50000000    0.55487003    -0.18380000
opls_700-16    C    0.31486981    0.50000000    0.62368990    0.08120000
opls_145-17    C    0.38322005    0.50000000    0.66227980    -0.09120000
opls_145-18    C    0.42190024    0.50000000    0.63196009    -0.18350000
opls_145-19    C    0.44815992    0.50000000    0.13595010    -0.20710000
opls_145-20    C    0.41472986    0.50000000    0.06641978    -0.20700000
opls_145-21    C    0.34733996    0.50000000    0.02885991    0.10490000
opls_145-22    C    0.31369989    0.50000000    0.06245021    -0.20630000
opls_145-23    C    0.34732005    0.50000000    0.13221984    -0.20650000
opls_145-24    C    0.81077995    0.50000000    0.59654006    0.08100000
opls_145-25    C    0.84160018    0.50000000    0.66405020    -0.20680000
opls_145-26    C    0.91044989    0.50000000    0.70334008    -0.20660000
opls_145-27    C    0.94922006    0.50000000    0.67540002    0.10230000
opls_145-28    C    0.91756005    0.50000000    0.60798013    -0.20700000
opls_145-29    C    0.84885989    0.50000000    0.56883981    -0.20690000
opls_142-30    C    0.27170988    0.50000000    0.65318997    -0.21940000
opls_142-31    C    0.28559994    0.50000000    0.71016992    -0.21950000
opls_700-32    C    0.24175994    0.50000000    0.73947007    0.03120000
opls_700-33    C    0.27045014    0.50000000    0.80876008    -0.07800000
opls_521-34    C    0.23060993    0.50000000    0.83860017    0.16860000
opls_521-35    C    0.13422008    0.50000000    0.73169994    0.17020000
opls_700-36    C    0.17291015    0.50000000    0.70073010    -0.07920000
opls_142-37    C    0.25773014    0.50000000    0.91169024    -0.22100000
opls_142-38    C    0.06127011    0.50000000    0.69133016    -0.18060000
opls_423-39    C    0.14231026    0.50000000    0.63068027    0.28850000
opls_142-40    C    0.31488990    0.50000000    0.95540987    -0.21920000
opls_142-41    C    0.02213020    0.50000000    0.71736022    -0.14120000
opls_423-42    C    0.33921013    0.50000000    0.84754990    0.28410000
opls_520-43    N    0.16421998    0.50000000    0.79912981    -0.31990000
opls_262-44    N    0.11774996    0.50000000    0.57469994    -0.35460000
opls_262-45    N    0.39410012    0.50000000    0.87850030    -0.32010000
opls_146-46    H    0.41996013    0.50000000    0.37426001    0.11110000
opls_146-47    H    0.59670020    0.50000000    0.56575021    0.10920000
opls_146-48    H    0.60860998    0.50000000    0.38659001    0.11450000
opls_146-49    H    0.30279984    0.50000000    0.47140981    0.09840000
opls_146-50    H    0.23427014    0.50000000    0.52439028    0.22130000
opls_146-51    H    0.40716999    0.50000000    0.71577030    0.08890000
opls_146-52    H    0.47430979    0.50000000    0.66206990    0.22130000
opls_146-53    H    0.50006981    0.50000000    0.16400982    0.22570000
opls_146-54    H    0.44160998    0.50000000    0.04171989    0.22590000
opls_146-55    H    0.26164010    0.50000000    0.03546988    0.22570000
opls_146-56    H    0.32094991    0.50000000    0.15753994    0.22590000
opls_146-57    H    0.81243021    0.50000000    0.68590029    0.22580000
opls_146-58    H    0.93357992    0.50000000    0.75510007    0.22580000
opls_146-59    H    0.94548991    0.50000000    0.58545996    0.22580000
opls_146-60    H    0.82536986    0.50000000    0.51697014    0.22590000
opls_144-61    H    0.22611990    0.50000000    0.62586015    0.22630000
opls_144-62    H    0.33124018    0.50000000    0.73810998    0.22630000
opls_144-63    H    0.22868979    0.50000000    0.92850982    0.22630000
opls_144-64    H    0.03897010    0.50000000    0.63824001    0.22650000
opls_144-65    H    0.34107028    0.50000000    0.93652026    0.22630000
opls_144-66    H    0.04389985    0.50000000    0.77095991    0.10900000
