#======================================================================
# Crystal Data Generated By AuToFF
#----------------------------------------------------------------------

data_AuToFF_phase_1

_cell_length_a                         44.0018
_cell_length_b                         44.0018
_cell_length_c                         6.6472
_cell_angle_alpha                      90.00
_cell_angle_beta                       90.00
_cell_angle_gamma                      120.00
_symmetry_space_group_name_H-M_alt     'P 1'
_symmetry_space_group_IT_number        1

loop_
_space_group_symop_operation_xyz
   'x, y, z'

loop_
   _atom_site_label
   _atom_site_type_symbol
   _atom_site_fract_x
   _atom_site_fract_y
   _atom_site_fract_z
   _atom_site_charge
opls_700-0    C    0.47098006    0.50265990    0.58912023    -0.06530000
opls_234-1    C    0.44303003    0.51193990    0.62819984    0.38690000
opls_700-2    C    0.49798004    0.53036003    0.47810958    -0.07220000
opls_700-3    C    0.42040996    0.60469004    0.45908954    0.06800000
opls_145-4    C    0.43148990    0.63696995    0.36029005    -0.12880000
opls_145-5    C    0.41023993    0.65206993    0.35539927    -0.12260000
opls_145-6    C    0.36588008    0.60311998    0.54683024    -0.12650000
opls_145-7    C    0.38710999    0.58796988    0.55231075    -0.12840000
opls_700-8    C    0.37701006    0.63555996    0.44935010    0.06820000
opls_145-9    C    0.35477996    0.65213999    0.44754934    0.09340000
opls_145-10    C    0.47288002    0.47286985    0.64434950    -0.17520000
opls_142-11    C    0.44354000    0.58964990    0.45914069    0.03620000
opls_234-12    C    0.48777012    0.55772006    0.44224034    0.39230000
opls_145-13    C    0.31793992    0.63151001    0.44573053    -0.12470000
opls_700-14    C    0.53008991    0.49990002    0.47243952    -0.06500000
opls_234-15    C    0.55803996    0.49061005    0.43335991    0.39480000
opls_700-16    C    0.50308994    0.47218992    0.58343964    -0.06630000
opls_700-17    C    0.58063006    0.39782999    0.60253942    0.06790000
opls_145-18    C    0.56955011    0.36556005    0.70126971    -0.12880000
opls_145-19    C    0.59078998    0.35043987    0.70616049    -0.12560000
opls_145-20    C    0.63516993    0.39941002    0.51486942    -0.12740000
opls_145-21    C    0.61394987    0.41456983    0.50937989    -0.12830000
opls_700-22    C    0.62403995    0.36697004    0.61228939    0.06730000
opls_700-23    C    0.64626005    0.35039001    0.61410970    0.06400000
opls_145-24    C    0.52819994    0.52969007    0.41719972    -0.17530000
opls_142-25    C    0.55751999    0.41289008    0.60245968    0.07290000
opls_234-26    C    0.51328986    0.44482988    0.61931941    0.39390000
opls_145-27    C    0.68310005    0.37104991    0.61588940    -0.07650000
opls_700-28    C    0.13765006    0.83598991    0.92245005    -0.06530000
opls_234-29    C    0.10970003    0.84526991    0.96152967    0.38690000
opls_700-30    C    0.16465004    0.86369004    0.81143940    -0.07220000
opls_700-31    C    0.08707984    0.93801979    0.79241936    0.06800000
opls_145-32    C    0.09815990    0.97029996    0.69361987    -0.12890000
opls_145-33    C    0.07690993    0.98539994    0.68873059    -0.12370000
opls_145-34    C    0.03255009    0.93644999    0.88016007    -0.12840000
opls_145-35    C    0.05378000    0.92129989    0.88564057    -0.12850000
opls_700-36    C    0.04368006    0.96888997    0.78267993    0.06820000
opls_145-37    C    0.02144996    0.98547000    0.78088067    0.09340000
opls_145-38    C    0.13955003    0.80619986    0.97767932    -0.17510000
opls_142-39    C    0.11021001    0.92297991    0.79247051    0.03620000
opls_234-40    C    0.15444000    0.89104981    0.77557016    0.39230000
opls_145-41    C    0.98460992    0.96484002    0.77906036    -0.12460000
opls_700-42    C    0.19675992    0.83323003    0.80576935    -0.06500000
opls_234-43    C    0.22470996    0.82394005    0.76668973    0.39480000
opls_700-44    C    0.16975995    0.80551992    0.91676947    -0.06630000
opls_700-45    C    0.24730006    0.73116000    0.93587074    0.06790000
opls_145-46    C    0.23622012    0.69889006    0.03459953    -0.12880000
opls_145-47    C    0.25745998    0.68376988    0.03949031    -0.12560000
opls_145-48    C    0.30183993    0.73274003    0.84820075    -0.12700000
opls_145-49    C    0.28061988    0.74789984    0.84270971    -0.12830000
opls_700-50    C    0.29070996    0.70030005    0.94562071    0.06730000
opls_700-51    C    0.31293006    0.68372002    0.94743952    0.06400000
opls_145-52    C    0.19486982    0.86301982    0.75052955    -0.17530000
opls_142-53    C    0.22418987    0.74621982    0.93578951    0.03620000
opls_234-54    C    0.17995986    0.77815989    0.95265074    0.39390000
opls_145-55    C    0.34977006    0.70437991    0.94922072    -0.07650000
opls_700-56    C    0.80431005    0.16932989    0.25579041    -0.06530000
opls_234-57    C    0.77636002    0.17860989    0.29487002    0.38700000
opls_700-58    C    0.83131003    0.19703002    0.14477976    -0.07220000
opls_700-59    C    0.75373996    0.27136003    0.12575972    0.06800000
opls_145-60    C    0.76481989    0.30363994    0.02696022    -0.12900000
opls_145-61    C    0.74356992    0.31873992    0.02206944    -0.12260000
opls_145-62    C    0.69921008    0.26978997    0.21350042    -0.12650000
opls_145-63    C    0.72043999    0.25463987    0.21897942    -0.12810000
opls_700-64    C    0.71034005    0.30222995    0.11602028    0.06820000
opls_145-65    C    0.68810995    0.31880998    0.11421952    0.09340000
opls_145-66    C    0.80621015    0.13954010    0.31101968    -0.17530000
opls_142-67    C    0.77687000    0.25631989    0.12580936    0.03520000
opls_234-68    C    0.82110012    0.22439005    0.10891052    0.39240000
opls_145-69    C    0.65126991    0.29818000    0.11240071    -0.12470000
opls_700-70    C    0.86341991    0.16657001    0.13910970    -0.06500000
opls_234-71    C    0.89136995    0.15728004    0.10003009    0.39480000
opls_700-72    C    0.83641994    0.13885991    0.25010982    -0.06630000
opls_700-73    C    0.91396006    0.06449998    0.26920959    0.06790000
opls_145-74    C    0.90288011    0.03223004    0.36793988    -0.12880000
opls_145-75    C    0.92412011    0.01711012    0.37283067    -0.12580000
opls_145-76    C    0.96849992    0.06608002    0.18153960    -0.12740000
opls_145-77    C    0.94728000    0.08124009    0.17605007    -0.12840000
opls_700-78    C    0.95736995    0.03364003    0.27895956    0.06730000
opls_700-79    C    0.97959005    0.01706000    0.28077988    0.06400000
opls_145-80    C    0.86152994    0.19636006    0.08386990    -0.17530000
opls_142-81    C    0.89084999    0.07956007    0.26912986    0.07290000
opls_234-82    C    0.84661986    0.11149987    0.28598959    0.39390000
opls_145-83    C    0.01643005    0.03771990    0.28255957    -0.07650000
opls_700-84    C    0.49733991    0.96831999    0.58912023    -0.06530000
opls_234-85    C    0.48806001    0.93109003    0.62819984    0.38690000
opls_700-86    C    0.46963982    0.96761985    0.47810958    -0.07220000
opls_700-87    C    0.39531005    0.81571997    0.45908954    0.06800000
opls_145-88    C    0.36303004    0.79452002    0.36029005    -0.12880000
opls_145-89    C    0.34792989    0.75816996    0.35539927    -0.12260000
opls_145-90    C    0.39688003    0.76275997    0.54683024    -0.12650000
opls_145-91    C    0.41202992    0.79913994    0.55231075    -0.12810000
opls_700-92    C    0.36444006    0.74145006    0.44935010    0.06820000
opls_145-93    C    0.34785995    0.70264006    0.44754934    0.09340000
opls_145-94    C    0.52713001    0.00000997    0.64434950    -0.17530000
opls_142-95    C    0.41034996    0.85388992    0.45914069    0.03520000
opls_234-96    C    0.44227992    0.93004980    0.44224034    0.39230000
opls_145-97    C    0.36849012    0.68643004    0.44573053    -0.12470000
opls_700-98    C    0.50009992    0.03018998    0.47243952    -0.06500000
opls_234-99    C    0.50939004    0.06742991    0.43335991    0.39480000
opls_700-100    C    0.52781000    0.03090009    0.58343964    -0.06630000
opls_700-101    C    0.60217000    0.18279997    0.60253942    0.06790000
opls_145-102    C    0.63444001    0.20398996    0.70126971    -0.12880000
opls_145-103    C    0.64955993    0.24034999    0.70616049    -0.12580000
opls_145-104    C    0.60059001    0.23575998    0.51486942    -0.12700000
opls_145-105    C    0.58542990    0.19938000    0.50937989    -0.12840000
opls_700-106    C    0.63302999    0.25706989    0.61228939    0.06730000
opls_700-107    C    0.64960989    0.29586991    0.61410970    0.06400000
opls_145-108    C    0.47031003    0.99850997    0.41719972    -0.17530000
opls_142-109    C    0.58711009    0.14463002    0.60245968    0.07290000
opls_234-110    C    0.55517001    0.06845991    0.61931941    0.39390000
opls_145-111    C    0.62894998    0.31205001    0.61588940    -0.07650000
opls_700-112    C    0.16400991    0.30165000    0.92245005    -0.06530000
opls_234-113    C    0.15473001    0.26442004    0.96152967    0.38690000
opls_700-114    C    0.13630983    0.30094986    0.81143940    -0.07220000
opls_700-115    C    0.06198005    0.14904998    0.79241936    0.06800000
opls_145-116    C    0.02970005    0.12785003    0.69361987    -0.12900000
opls_145-117    C    0.01459989    0.09149997    0.68873059    -0.12380000
opls_145-118    C    0.06355004    0.09608998    0.88016007    -0.12650000
opls_145-119    C    0.07869992    0.13246995    0.88564057    -0.12810000
opls_700-120    C    0.03111006    0.07478006    0.78267993    0.06820000
opls_145-121    C    0.01452995    0.03597007    0.78088067    0.09340000
opls_145-122    C    0.19380002    0.33333998    0.97767932    -0.17530000
opls_142-123    C    0.07701996    0.18721993    0.79247051    0.03520000
opls_234-124    C    0.10895006    0.26338007    0.77557016    0.39230000
opls_145-125    C    0.03516013    0.01976005    0.77906036    -0.12470000
opls_700-126    C    0.16676993    0.36351999    0.80576935    -0.06500000
opls_234-127    C    0.17606005    0.40075992    0.76668973    0.39490000
opls_700-128    C    0.19447987    0.36422984    0.91676947    -0.06630000
opls_700-129    C    0.26884000    0.51612998    0.93587074    0.06790000
opls_145-130    C    0.30111002    0.53731997    0.03459953    -0.12880000
opls_145-131    C    0.31622993    0.57368000    0.03949031    -0.12560000
opls_145-132    C    0.26726002    0.56908999    0.84820075    -0.12650000
opls_145-133    C    0.25209991    0.53271001    0.84270971    -0.12830000
opls_700-134    C    0.29969999    0.59039990    0.94562071    0.06730000
opls_700-135    C    0.31627989    0.62919992    0.94743952    0.06400000
opls_145-136    C    0.13698004    0.33183998    0.75052955    -0.17530000
opls_142-137    C    0.25378009    0.47796003    0.93578951    0.07290000
opls_234-138    C    0.22184001    0.40178992    0.95265074    0.39390000
opls_145-139    C    0.29561998    0.64538002    0.94922072    -0.07650000
opls_700-140    C    0.83066991    0.63498998    0.25579041    -0.06530000
opls_234-141    C    0.82139000    0.59776003    0.29487002    0.38690000
opls_700-142    C    0.80296982    0.63428984    0.14477976    -0.07220000
opls_700-143    C    0.72864004    0.48238996    0.12575972    0.06800000
opls_145-144    C    0.69636004    0.46119001    0.02696022    -0.12880000
opls_145-145    C    0.68125989    0.42483995    0.02206944    -0.12260000
opls_145-146    C    0.73021003    0.42942996    0.21350042    -0.12840000
opls_145-147    C    0.74535991    0.46580993    0.21897942    -0.12810000
opls_700-148    C    0.69777005    0.40812005    0.11602028    0.06820000
opls_145-149    C    0.68118994    0.36931005    0.11421952    0.09340000
opls_145-150    C    0.86046001    0.66667996    0.31101968    -0.17530000
opls_142-151    C    0.74367995    0.52055991    0.12580936    0.07290000
opls_234-152    C    0.77561005    0.59672005    0.10891052    0.39230000
opls_145-153    C    0.70182012    0.35310003    0.11240071    -0.12470000
opls_700-154    C    0.83342992    0.69685997    0.13910970    -0.06500000
opls_234-155    C    0.84272004    0.73409990    0.10003009    0.39480000
opls_700-156    C    0.86113986    0.69756982    0.25010982    -0.06630000
opls_700-157    C    0.93550000    0.84946996    0.26920959    0.06790000
opls_145-158    C    0.96777001    0.87065995    0.36793988    -0.12890000
opls_145-159    C    0.98288992    0.90701998    0.37283067    -0.12580000
opls_145-160    C    0.93392001    0.90242997    0.18153960    -0.12700000
opls_145-161    C    0.91875990    0.86604999    0.17605007    -0.12840000
opls_700-162    C    0.96635998    0.92373988    0.27895956    0.06730000
opls_700-163    C    0.98293988    0.96253990    0.28077988    0.06400000
opls_145-164    C    0.80364003    0.66517996    0.08386990    -0.17530000
opls_142-165    C    0.92044008    0.81130001    0.26912986    0.03620000
opls_234-166    C    0.88850000    0.73512990    0.28598959    0.39390000
opls_145-167    C    0.96227997    0.97872000    0.28255957    -0.07650000
opls_700-168    C    0.03167990    0.52901985    0.58912023    -0.06530000
opls_234-169    C    0.06890997    0.55697006    0.62819984    0.38690000
opls_700-170    C    0.03238001    0.50201986    0.47810958    -0.07220000
opls_700-171    C    0.18427999    0.57958998    0.45908954    0.06800000
opls_145-172    C    0.20548006    0.56851004    0.36029005    -0.12880000
opls_145-173    C    0.24182982    0.58975985    0.35539927    -0.12380000
opls_145-174    C    0.23724011    0.63412005    0.54683024    -0.12650000
opls_145-175    C    0.20085996    0.61288992    0.55231075    -0.12850000
opls_700-176    C    0.25854989    0.62298998    0.44935010    0.06820000
opls_145-177    C    0.29735987    0.64521995    0.44754934    0.09340000
opls_145-178    C    0.99999006    0.52711992    0.64434950    -0.17530000
opls_142-179    C    0.14610991    0.55645992    0.45914069    0.03620000
opls_234-180    C    0.06994983    0.51222988    0.44224034    0.39230000
opls_145-181    C    0.31356996    0.68205994    0.44573053    -0.12470000
opls_700-182    C    0.96980994    0.46991000    0.47243952    -0.06500000
opls_234-183    C    0.93257000    0.44196004    0.43335991    0.39490000
opls_700-184    C    0.96910006    0.49690999    0.58343964    -0.06630000
opls_700-185    C    0.81719994    0.41937004    0.60253942    0.06790000
opls_145-186    C    0.79601010    0.43044999    0.70126971    -0.12880000
opls_145-187    C    0.75964996    0.40920988    0.70616049    -0.12560000
opls_145-188    C    0.76424006    0.36483000    0.51486942    -0.12700000
opls_145-189    C    0.80061987    0.38604990    0.50937989    -0.12840000
opls_700-190    C    0.74293006    0.37596007    0.61228939    0.06730000
opls_700-191    C    0.70413006    0.35374008    0.61410970    0.06400000
opls_145-192    C    0.00149002    0.47179996    0.41719972    -0.17530000
opls_142-193    C    0.85536992    0.44247990    0.60245968    0.07290000
opls_234-194    C    0.93154000    0.48670994    0.61931941    0.39390000
opls_145-195    C    0.68794997    0.31690008    0.61588940    -0.07650000
opls_700-196    C    0.69834991    0.86234986    0.92245005    -0.06530000
opls_234-197    C    0.73557984    0.89029981    0.96152967    0.38700000
opls_700-198    C    0.69905001    0.83534987    0.81143940    -0.07220000
opls_700-199    C    0.85094999    0.91291999    0.79241936    0.06800000
opls_145-200    C    0.87215006    0.90184004    0.69361987    -0.12880000
opls_145-201    C    0.90849983    0.92308986    0.68873059    -0.12260000
opls_145-202    C    0.90390998    0.96744980    0.88016007    -0.12840000
opls_145-203    C    0.86752996    0.94621993    0.88564057    -0.12820000
opls_700-204    C    0.92521989    0.95631999    0.78267993    0.06820000
opls_145-205    C    0.96402987    0.97854996    0.78088067    0.09340000
opls_145-206    C    0.66666006    0.86044993    0.97767932    -0.17530000
opls_142-207    C    0.81277991    0.88978993    0.79247051    0.03620000
opls_234-208    C    0.73661983    0.84555989    0.77557016    0.39230000
opls_145-209    C    0.98023996    0.01538995    0.77906036    -0.12460000
opls_700-210    C    0.63647994    0.80324001    0.80576935    -0.06500000
opls_234-211    C    0.59924001    0.77529005    0.76668973    0.39480000
opls_700-212    C    0.63577006    0.83024000    0.91676947    -0.06630000
opls_700-213    C    0.48386995    0.75270005    0.93587074    0.06790000
opls_145-214    C    0.46268010    0.76378000    0.03459953    -0.12880000
opls_145-215    C    0.42631997    0.74253989    0.03949031    -0.12580000
opls_145-216    C    0.43091007    0.69816001    0.84820075    -0.12700000
opls_145-217    C    0.46728987    0.71937991    0.84270971    -0.12840000
opls_700-218    C    0.40959993    0.70928981    0.94562071    0.06730000
opls_700-219    C    0.37079993    0.68706983    0.94743952    0.06410000
opls_145-220    C    0.66816003    0.80512997    0.75052955    -0.17530000
opls_142-221    C    0.52203992    0.77580991    0.93578951    0.03620000
opls_234-222    C    0.59821000    0.82003995    0.95265074    0.39400000
opls_145-223    C    0.35461984    0.65022983    0.94922072    -0.07650000
opls_700-224    C    0.36501003    0.19569010    0.25579041    -0.06530000
opls_234-225    C    0.40223996    0.22364005    0.29487002    0.38690000
opls_700-226    C    0.36571013    0.16869011    0.14477976    -0.07220000
opls_700-227    C    0.51760999    0.24625997    0.12575972    0.06800000
opls_145-228    C    0.53881005    0.23518003    0.02696022    -0.12900000
opls_145-229    C    0.57515995    0.25643011    0.02206944    -0.12380000
opls_145-230    C    0.57057011    0.30079005    0.21350042    -0.12650000
opls_145-231    C    0.53418996    0.27955991    0.21897942    -0.12850000
opls_700-232    C    0.59187988    0.28965998    0.11602028    0.06820000
opls_145-233    C    0.63068986    0.31188994    0.11421952    0.09340000
opls_145-234    C    0.33332005    0.19378991    0.31101968    -0.17510000
opls_142-235    C    0.47943990    0.22312991    0.12580936    0.03620000
opls_234-236    C    0.40327982    0.17889987    0.10891052    0.39230000
opls_145-237    C    0.64689995    0.34872993    0.11240071    -0.12460000
opls_700-238    C    0.30313993    0.13657999    0.13910970    -0.06500000
opls_234-239    C    0.26590000    0.10863004    0.10003009    0.39480000
opls_700-240    C    0.30243006    0.16357998    0.25010982    -0.06630000
opls_700-241    C    0.15052994    0.08604003    0.26920959    0.06790000
opls_145-242    C    0.12934009    0.09711998    0.36793988    -0.12880000
opls_145-243    C    0.09297996    0.07587987    0.37283067    -0.12560000
opls_145-244    C    0.09757006    0.03149999    0.18153960    -0.12740000
opls_145-245    C    0.13394986    0.05271989    0.17605007    -0.12830000
opls_700-246    C    0.07626005    0.04263006    0.27895956    0.06730000
opls_700-247    C    0.03746006    0.02041007    0.28077988    0.06400000
opls_145-248    C    0.33482002    0.13846995    0.08386990    -0.17640000
opls_142-249    C    0.18869991    0.10914989    0.26912986    0.07290000
opls_234-250    C    0.26487000    0.15337993    0.28598959    0.39400000
opls_145-251    C    0.02127983    0.98356981    0.28255957    -0.07650000
opls_542-252    N    0.45480006    0.54508002    0.53652064    -0.05350000
opls_750-253    N    0.43336002    0.55927990    0.54139939    -0.14850000
opls_542-254    N    0.54627991    0.45747990    0.52506018    -0.05340000
opls_750-255    N    0.56770997    0.44326008    0.52019948    -0.14850000
opls_542-256    N    0.12147006    0.87841003    0.86985046    -0.05350000
opls_750-257    N    0.10003003    0.89260990    0.87473071    -0.14850000
opls_542-258    N    0.21294992    0.79080991    0.85839000    -0.05350000
opls_750-259    N    0.23437985    0.77658983    0.85352931    -0.14850000
opls_542-260    N    0.78813005    0.21175001    0.20318931    -0.05350000
opls_750-261    N    0.76669002    0.22594989    0.20806956    -0.14850000
opls_542-262    N    0.87960991    0.12414989    0.19173035    -0.05350000
opls_750-263    N    0.90103997    0.10993007    0.18686966    -0.14850000
opls_542-264    N    0.45492001    0.90972003    0.53652064    -0.05350000
opls_750-265    N    0.44071999    0.87407982    0.54139939    -0.14840000
opls_542-266    N    0.54252004    0.08879992    0.52506018    -0.05350000
opls_750-267    N    0.55674005    0.12445010    0.52019948    -0.14840000
opls_542-268    N    0.12159002    0.24305004    0.86985046    -0.05350000
opls_750-269    N    0.10739012    0.20741009    0.87473071    -0.14850000
opls_542-270    N    0.20919004    0.42212993    0.85839000    -0.05350000
opls_750-271    N    0.22340992    0.45777984    0.85352931    -0.14850000
opls_542-272    N    0.78825001    0.57639002    0.20318931    -0.05350000
opls_750-273    N    0.77405011    0.54075007    0.20806956    -0.14850000
opls_542-274    N    0.87585003    0.75546991    0.19173035    -0.05350000
opls_750-275    N    0.89006991    0.79111982    0.18686966    -0.14850000
opls_542-276    N    0.09027993    0.54519995    0.53652064    -0.05350000
opls_750-277    N    0.12592009    0.56664002    0.54139939    -0.14850000
opls_542-278    N    0.91119992    0.45371993    0.52506018    -0.05350000
opls_750-279    N    0.87555011    0.43229009    0.52019948    -0.14850000
opls_542-280    N    0.75694994    0.87852996    0.86985046    -0.05340000
opls_750-281    N    0.79259009    0.89997003    0.87473071    -0.14850000
opls_542-282    N    0.57786993    0.78704993    0.85839000    -0.05350000
opls_750-283    N    0.54221999    0.76561983    0.85352931    -0.14850000
opls_542-284    N    0.42360993    0.21186994    0.20318931    -0.05350000
opls_750-285    N    0.45925008    0.23331001    0.20806956    -0.14850000
opls_542-286    N    0.24452992    0.12038992    0.19173035    -0.05350000
opls_750-287    N    0.20888011    0.09896008    0.18686966    -0.14850000
opls_236-288    O    0.49677997    0.41736987    0.71197948    -0.37260000
opls_236-289    O    0.41560995    0.49550000    0.71976020    -0.36790000
opls_236-290    O    0.50427990    0.58516984    0.34958930    -0.38180000
opls_236-291    O    0.58547003    0.50704995    0.34181009    -0.37840000
opls_236-292    O    0.16344997    0.75069988    0.04530930    -0.37250000
opls_236-293    O    0.08227996    0.82883001    0.05309002    -0.36790000
opls_236-294    O    0.17094990    0.91849985    0.68292063    -0.38180000
opls_236-295    O    0.25214003    0.84037995    0.67513991    -0.37840000
opls_236-296    O    0.83011009    0.08404012    0.37864966    -0.37260000
opls_236-297    O    0.74893995    0.16216999    0.38643038    -0.36790000
opls_236-298    O    0.83761002    0.25184010    0.01625948    -0.38170000
opls_236-299    O    0.91880002    0.17371994    0.00848026    -0.37830000
opls_236-300    O    0.58263004    0.07940996    0.71197948    -0.37260000
opls_236-301    O    0.50449990    0.92010981    0.71976020    -0.36790000
opls_236-302    O    0.41483000    0.91910998    0.34958930    -0.38180000
opls_236-303    O    0.49295013    0.07842011    0.34181009    -0.37840000
opls_236-304    O    0.24930005    0.41273997    0.04530930    -0.37260000
opls_236-305    O    0.17117004    0.25344008    0.05309002    -0.36790000
opls_236-306    O    0.08150001    0.25243999    0.68292063    -0.38180000
opls_236-307    O    0.15962000    0.41174986    0.67513991    -0.37840000
opls_236-308    O    0.91596004    0.74607995    0.37864966    -0.37260000
opls_236-309    O    0.83783003    0.58678006    0.38643038    -0.36790000
opls_236-310    O    0.74816000    0.58577997    0.01625948    -0.38180000
opls_236-311    O    0.82627999    0.74508984    0.00848026    -0.37840000
opls_236-312    O    0.92058986    0.50321991    0.71197948    -0.37250000
opls_236-313    O    0.07989001    0.58438993    0.71976020    -0.36790000
opls_236-314    O    0.08088997    0.49571991    0.34958930    -0.38180000
opls_236-315    O    0.92158007    0.41452995    0.34181009    -0.37840000
opls_236-316    O    0.58725986    0.83654992    0.04530930    -0.37260000
opls_236-317    O    0.74656002    0.91771994    0.05309002    -0.36790000
opls_236-318    O    0.74755997    0.82904992    0.68292063    -0.38180000
opls_236-319    O    0.58825007    0.74785996    0.67513991    -0.37840000
opls_236-320    O    0.25391985    0.16988990    0.37864966    -0.37260000
opls_236-321    O    0.41322001    0.25105992    0.38643038    -0.36790000
opls_236-322    O    0.41421996    0.16238990    0.01625948    -0.38170000
opls_236-323    O    0.25491006    0.08119994    0.00848026    -0.37830000
opls_146-324    H    0.45679000    0.65040985    0.28566013    0.11490000
opls_146-325    H    0.41978010    0.67649005    0.27475930    0.11890000
opls_146-326    H    0.34092994    0.58970002    0.62376038    0.12020000
opls_146-327    H    0.37785985    0.56313985    0.62944999    0.11650000
opls_146-328    H    0.45217008    0.45152005    0.72957035    0.11650000
opls_144-329    H    0.46864999    0.60538992    0.39020941    0.10450000
opls_146-330    H    0.30634998    0.60333989    0.44678963    0.12230000
opls_146-331    H    0.54426997    0.35215007    0.77617042    0.11460000
opls_146-332    H    0.58139997    0.32618008    0.78847936    0.12320000
opls_146-333    H    0.66023008    0.41291002    0.43918943    0.12270000
opls_146-334    H    0.62323010    0.43943004    0.43250993    0.11660000
opls_146-335    H    0.54890989    0.55103987    0.33198941    0.11650000
opls_144-336    H    0.53240999    0.39716003    0.67135034    0.10450000
opls_146-337    H    0.69553998    0.39930007    0.61455951    0.12220000
opls_146-338    H    0.12345999    0.98374983    0.61898995    0.11480000
opls_146-339    H    0.08645009    0.00983004    0.60809965    0.12320000
opls_146-340    H    0.00758995    0.92303003    0.95709020    0.11880000
opls_146-341    H    0.04451984    0.89647983    0.96277982    0.11480000
opls_146-342    H    0.11884007    0.78486003    0.06290017    0.11800000
opls_144-343    H    0.13531999    0.93871993    0.72354977    0.10450000
opls_146-344    H    0.97300998    0.93666990    0.78011945    0.12570000
opls_146-345    H    0.21093996    0.68549005    0.10950927    0.11460000
opls_146-346    H    0.24806985    0.65950983    0.12181069    0.12320000
opls_146-347    H    0.32689007    0.74625000    0.77251926    0.12200000
opls_146-348    H    0.28990011    0.77276005    0.76585028    0.11650000
opls_146-349    H    0.21557988    0.88437985    0.66532976    0.11780000
opls_144-350    H    0.19907000    0.73049003    0.00468017    0.12160000
opls_146-351    H    0.36220985    0.73262982    0.94789987    0.12220000
opls_146-352    H    0.79013012    0.31708010    0.95233030    0.11800000
opls_146-353    H    0.75311010    0.34316004    0.94142947    0.11890000
opls_146-354    H    0.67425994    0.25637001    0.29042003    0.11900000
opls_146-355    H    0.71118998    0.22981010    0.29610964    0.11800000
opls_146-356    H    0.78550008    0.11819004    0.39624052    0.11650000
opls_144-357    H    0.80199000    0.27204994    0.05687959    0.12160000
opls_146-358    H    0.63967997    0.27000988    0.11345980    0.12220000
opls_146-359    H    0.87759997    0.01882006    0.44284059    0.11460000
opls_146-360    H    0.91472998    0.99284010    0.45514051    0.12210000
opls_146-361    H    0.99356008    0.07958001    0.10585961    0.12270000
opls_146-362    H    0.95657011    0.10609006    0.09918011    0.11480000
opls_146-363    H    0.88223988    0.21770986    0.99865959    0.11650000
opls_144-364    H    0.86573999    0.06383002    0.33802052    0.10450000
opls_146-365    H    0.02887998    0.06596009    0.28122969    0.12120000
opls_146-366    H    0.34958986    0.80637988    0.28566013    0.11480000
opls_146-367    H    0.32350987    0.74328989    0.27475930    0.11890000
opls_146-368    H    0.41029993    0.75122997    0.62376038    0.12020000
opls_146-369    H    0.43685989    0.81470991    0.62944999    0.11800000
opls_146-370    H    0.54848008    0.00065002    0.72957035    0.11650000
opls_144-371    H    0.39460988    0.86326990    0.39020941    0.12160000
opls_146-372    H    0.39665988    0.70300981    0.44678963    0.12220000
opls_146-373    H    0.64784986    0.19211986    0.77617042    0.11460000
opls_146-374    H    0.67382995    0.25523005    0.78847936    0.12030000
opls_146-375    H    0.58708987    0.24730992    0.43918943    0.12210000
opls_146-376    H    0.56057993    0.18381003    0.43250993    0.11460000
opls_146-377    H    0.44895996    0.99786993    0.33198941    0.11650000
opls_144-378    H    0.60283994    0.13525004    0.67135034    0.10450000
opls_146-379    H    0.60069984    0.29624990    0.61455951    0.12220000
opls_146-380    H    0.01625985    0.13971986    0.61898995    0.11800000
opls_146-381    H    0.99016987    0.07661990    0.60809965    0.12320000
opls_146-382    H    0.07696993    0.08455998    0.95709020    0.12020000
opls_146-383    H    0.10351988    0.14804990    0.96277982    0.11460000
opls_146-384    H    0.21515009    0.33398003    0.06290017    0.11650000
opls_144-385    H    0.06127988    0.19659991    0.72354977    0.12160000
opls_146-386    H    0.06333001    0.03634009    0.78011945    0.12220000
opls_146-387    H    0.31450986    0.52544987    0.10950927    0.11430000
opls_146-388    H    0.34048996    0.58856006    0.12181069    0.12270000
opls_146-389    H    0.25374986    0.58064990    0.77251926    0.12320000
opls_146-390    H    0.22723994    0.51714004    0.76585028    0.11800000
opls_146-391    H    0.11562997    0.33119994    0.66532976    0.11650000
opls_144-392    H    0.26950995    0.46858005    0.00468017    0.10450000
opls_146-393    H    0.26736985    0.62957991    0.94789987    0.12220000
opls_146-394    H    0.68291985    0.47304987    0.95233030    0.11480000
opls_146-395    H    0.65683988    0.40994991    0.94142947    0.12020000
opls_146-396    H    0.74362994    0.41788999    0.29042003    0.12320000
opls_146-397    H    0.77018988    0.48137991    0.29610964    0.11800000
opls_146-398    H    0.88181008    0.66732001    0.39624052    0.11650000
opls_144-399    H    0.72794988    0.52992992    0.05687959    0.10450000
opls_146-400    H    0.72999002    0.36967009    0.11345980    0.12570000
opls_146-401    H    0.98117987    0.85877988    0.44284059    0.11650000
opls_146-402    H    0.00715983    0.92188981    0.45514051    0.12210000
opls_146-403    H    0.92041986    0.91397991    0.10585961    0.12200000
opls_146-404    H    0.89390993    0.85048002    0.09918011    0.11460000
opls_146-405    H    0.78228996    0.66453992    0.99865959    0.11650000
opls_144-406    H    0.93617994    0.80192003    0.33802052    0.12160000
opls_146-407    H    0.93403985    0.96290992    0.28122969    0.12130000
opls_146-408    H    0.19362001    0.54321001    0.28566013    0.11480000
opls_146-409    H    0.25672003    0.58022006    0.27475930    0.11880000
opls_146-410    H    0.24876990    0.65907001    0.62376038    0.12020000
opls_146-411    H    0.18528992    0.62214000    0.62944999    0.11480000
opls_146-412    H    0.99935006    0.54782993    0.72957035    0.11650000
opls_144-413    H    0.13673999    0.53134988    0.39020941    0.10450000
opls_146-414    H    0.29699001    0.69365004    0.44678963    0.12220000
opls_146-415    H    0.80788994    0.45573007    0.77617042    0.11460000
opls_146-416    H    0.74477983    0.41859984    0.78847936    0.12320000
opls_146-417    H    0.75269005    0.33978006    0.43918943    0.12200000
opls_146-418    H    0.81618995    0.37676990    0.43250993    0.11470000
opls_146-419    H    0.00213002    0.45108994    0.33198941    0.11650000
opls_144-420    H    0.86475006    0.46758993    0.67135034    0.10450000
opls_146-421    H    0.70374994    0.30446001    0.61455951    0.12120000
opls_146-422    H    0.86028002    0.87654002    0.61898995    0.11480000
opls_146-423    H    0.92337990    0.91354980    0.60809965    0.11890000
opls_146-424    H    0.91543989    0.99240999    0.95709020    0.11880000
opls_146-425    H    0.85194991    0.95547998    0.96277982    0.11530000
opls_146-426    H    0.66602007    0.88115994    0.06290017    0.11650000
opls_144-427    H    0.80339999    0.86467989    0.72354977    0.10450000
opls_146-428    H    0.96366000    0.02699002    0.78011945    0.11610000
opls_146-429    H    0.47454982    0.78905982    0.10950927    0.11470000
opls_146-430    H    0.41143984    0.75192985    0.12181069    0.12030000
opls_146-431    H    0.41935006    0.67311007    0.77251926    0.12200000
opls_146-432    H    0.48285995    0.71009991    0.76585028    0.11480000
opls_146-433    H    0.66880002    0.78441995    0.66532976    0.11650000
opls_144-434    H    0.53142006    0.80092992    0.00468017    0.12160000
opls_146-435    H    0.37041995    0.63779001    0.94789987    0.12120000
opls_146-436    H    0.52695002    0.20987003    0.95233030    0.11800000
opls_146-437    H    0.59005003    0.24689005    0.94142947    0.11890000
opls_146-438    H    0.58210990    0.32574000    0.29042003    0.11890000
opls_146-439    H    0.51861992    0.28880999    0.29610964    0.11480000
opls_146-440    H    0.33269006    0.21449992    0.39624052    0.11800000
opls_144-441    H    0.47006998    0.19801987    0.05687959    0.10450000
opls_146-442    H    0.63033001    0.36032003    0.11345980    0.12120000
opls_146-443    H    0.14121994    0.12240006    0.44284059    0.11460000
opls_146-444    H    0.07810996    0.08527009    0.45514051    0.12320000
opls_146-445    H    0.08602006    0.00644008    0.10585961    0.12270000
opls_146-446    H    0.14952996    0.04342992    0.09918011    0.11530000
opls_146-447    H    0.33547001    0.11775993    0.99865959    0.11780000
opls_144-448    H    0.19809006    0.13425993    0.33802052    0.10450000
opls_146-449    H    0.03708995    0.97112002    0.28122969    0.12500000
