#======================================================================
# Crystal Data Generated By AuToFF
#----------------------------------------------------------------------

data_AuToFF_phase_1

_cell_length_a                         26.4636
_cell_length_b                         26.4636
_cell_length_c                         3.5000
_cell_angle_alpha                      90.00
_cell_angle_beta                       90.00
_cell_angle_gamma                      120.00
_symmetry_space_group_name_H-M_alt     'P 1'
_symmetry_space_group_IT_number        1

loop_
_space_group_symop_operation_xyz
   'x, y, z'

loop_
   _atom_site_label
   _atom_site_type_symbol
   _atom_site_fract_x
   _atom_site_fract_y
   _atom_site_fract_z
   _atom_site_charge
opls_700-0    C    0.73044998    0.36594010    0.50001143    0.06830000
opls_700-1    C    0.63406002    0.36450979    0.50001143    0.06960000
opls_700-2    C    0.63550021    0.26955012    0.50001143    0.06960000
opls_145-3    C    0.69737991    0.30398003    0.50001143    -0.06050000
opls_145-4    C    0.69601982    0.39339999    0.50001143    -0.06050000
opls_145-5    C    0.60660983    0.30263001    0.50001143    -0.06050000
opls_700-6    C    0.27004997    0.64199990    0.50001143    0.06960000
opls_700-7    C    0.35800003    0.62804982    0.50001143    0.06830000
opls_700-8    C    0.37194979    0.72994984    0.50001143    0.06830000
opls_145-9    C    0.31011016    0.70302010    0.50001143    -0.06050000
opls_145-10    C    0.29698014    0.60709001    0.50001143    -0.06050000
opls_145-11    C    0.39291990    0.68988989    0.50001143    -0.06050000
opls_700-12    C    0.20740004    0.61756992    0.50001143    0.07790000
opls_700-13    C    0.38242977    0.58981986    0.50001143    0.07790000
opls_700-14    C    0.41017991    0.79260019    0.50001143    0.07790000
opls_700-15    C    0.79359977    0.39822979    0.50001143    0.07640000
opls_700-16    C    0.60176988    0.39537005    0.50001143    0.07640000
opls_700-17    C    0.60463008    0.20641020    0.50001143    0.07640000
opls_145-18    C    0.18018001    0.65255005    0.50001143    -0.08740000
opls_145-19    C    0.34744991    0.52763988    0.50001143    -0.08740000
opls_145-20    C    0.47237018    0.81982010    0.50001143    -0.08740000
opls_145-21    C    0.82833003    0.37073978    0.50001143    -0.08740000
opls_145-22    C    0.62926025    0.45759016    0.50001143    -0.08740000
opls_145-23    C    0.54241010    0.17167005    0.50001143    -0.08740000
opls_145-24    C    0.63356988    0.17303011    0.50001143    -0.08740000
opls_145-25    C    0.82697972    0.46053979    0.50001143    -0.08740000
opls_145-26    C    0.53945996    0.36644014    0.50001143    -0.08740000
opls_145-27    C    0.38922990    0.83297997    0.50001143    -0.08740000
opls_145-28    C    0.16701991    0.55624996    0.50001143    -0.08740000
opls_145-29    C    0.44376011    0.61078010    0.50001143    -0.08740000
opls_145-30    C    0.11931990    0.62922007    0.50001143    -0.08800000
opls_145-31    C    0.37078016    0.49010020    0.50001143    -0.08800000
opls_145-32    C    0.50990015    0.88068016    0.50001143    -0.08800000
opls_145-33    C    0.88971005    0.40189020    0.50001143    -0.14930000
opls_145-34    C    0.59811007    0.48781992    0.50001143    -0.14920000
opls_145-35    C    0.51217989    0.11028988    0.50001143    -0.14930000
opls_145-36    C    0.60381013    0.11164994    0.50001143    -0.12710000
opls_145-37    C    0.88835021    0.49216014    0.50001143    -0.12730000
opls_145-38    C    0.50784987    0.39618992    0.50001143    -0.12730000
opls_145-39    C    0.42604982    0.89392992    0.50001143    -0.08800000
opls_145-40    C    0.10607014    0.53212018    0.50001143    -0.08800000
opls_145-41    C    0.46788004    0.57394990    0.50001143    -0.08800000
opls_700-42    C    0.08116998    0.56841019    0.50001143    0.06620000
opls_700-43    C    0.43159009    0.51275997    0.50001143    0.06620000
opls_700-44    C    0.48723993    0.91882984    0.50001143    0.06620000
opls_145-45    C    0.92084995    0.46313991    0.50001143    0.24430000
opls_145-46    C    0.53686004    0.45771016    0.50001143    0.24420000
opls_145-47    C    0.54229984    0.07914993    0.50001143    0.24420000
opls_142-48    C    0.02058000    0.54646994    0.50001143    0.09230000
opls_142-49    C    0.45353992    0.47411986    0.50001143    0.09190000
opls_142-50    C    0.52587996    0.97941980    0.50001143    0.09230000
opls_146-51    H    0.72054983    0.27744997    0.50001143    0.04590000
opls_146-52    H    0.72254981    0.44309990    0.50001143    0.04590000
opls_146-53    H    0.55689998    0.27945013    0.50001143    0.04590000
opls_146-54    H    0.29328999    0.73515009    0.50001143    0.04590000
opls_146-55    H    0.26485017    0.55814016    0.50001143    0.04600000
opls_146-56    H    0.44187026    0.70671018    0.50001143    0.04590000
opls_146-57    H    0.20809015    0.70217011    0.50001143    0.04590000
opls_146-58    H    0.29783986    0.50593002    0.50001143    0.04590000
opls_146-59    H    0.49407992    0.79190991    0.50001143    0.04590000
opls_146-60    H    0.80641012    0.32111012    0.50001143    0.04590000
opls_146-61    H    0.67889001    0.48530008    0.50001143    0.04590000
opls_146-62    H    0.51469987    0.19358980    0.50001143    0.04590000
opls_146-63    H    0.68327009    0.19610003    0.50001143    0.04590000
opls_146-64    H    0.80390003    0.48717021    0.50001143    0.04540000
opls_146-65    H    0.51283981    0.31673979    0.50001143    0.04590000
opls_146-66    H    0.34029004    0.81626004    0.50001143    0.04540000
opls_146-67    H    0.18373998    0.52403008    0.50001143    0.04550000
opls_146-68    H    0.47596998    0.65970988    0.50001143    0.04590000
opls_146-69    H    0.10043002    0.65962000    0.50001143    0.04590000
opls_146-70    H    0.34037999    0.44081001    0.50001143    0.04590000
opls_146-71    H    0.55919992    0.89958003    0.50001143    0.04590000
opls_146-72    H    0.91495985    0.37740001    0.50001143    0.04590000
opls_146-73    H    0.62261015    0.53755997    0.50001143    0.04590000
opls_146-74    H    0.46243983    0.08504002    0.50001143    0.04590000
opls_146-75    H    0.62942982    0.08753979    0.50001143    0.04590000
opls_146-76    H    0.91246022    0.54189016    0.50001143    0.04590000
opls_146-77    H    0.45810996    0.37057005    0.50001143    0.04590000
opls_146-78    H    0.40651008    0.92377003    0.50001143    0.04590000
opls_146-79    H    0.07623001    0.48274010    0.50001143    0.04590000
opls_146-80    H    0.51726984    0.59349991    0.50001143    0.04590000
opls_144-81    H    0.00279009    0.57780013    0.50001143    0.02710000
opls_144-82    H    0.42220986    0.42499984    0.50001143    0.02710000
opls_144-83    H    0.57500998    0.99721007    0.50001143    0.02710000
opls_750-84    N    0.97991003    0.48920004    0.50001143    -0.26080000
opls_750-85    N    0.51080009    0.49071020    0.50001143    -0.25560000
opls_750-86    N    0.50929010    0.02009019    0.50001143    -0.25570000
