#======================================================================
# Crystal Data Generated By AuToFF
#----------------------------------------------------------------------

data_AuToFF_phase_1

_cell_length_a                         17.3171
_cell_length_b                         3.4619
_cell_length_c                         17.3333
_cell_angle_alpha                      90.00
_cell_angle_beta                       122.55
_cell_angle_gamma                      90.00
_symmetry_space_group_name_H-M_alt     'P 1'
_symmetry_space_group_IT_number        1

loop_
_space_group_symop_operation_xyz
   'x, y, z'

loop_
   _atom_site_label
   _atom_site_type_symbol
   _atom_site_fract_x
   _atom_site_fract_y
   _atom_site_fract_z
   _atom_site_charge
opls_239-0    N    0.57824000    0.50000000    0.41199020    -0.13770000
opls_520-1    N    0.19740979    0.50000000    0.77419028    -0.33260000
opls_262-2    N    0.52146017    0.50000000    0.88546041    -0.33840000
opls_262-3    N    0.10403004    0.50000000    0.45977977    -0.33840000
opls_916-4    C    0.51685020    0.50000000    0.45288014    0.16200000
opls_145-5    C    0.41832017    0.50000000    0.40235016    -0.22630000
opls_145-6    C    0.36237026    0.50000000    0.43811037    -0.14540000
opls_700-7    C    0.39877967    0.50000000    0.53078004    0.09000000
opls_145-8    C    0.49315011    0.50000000    0.58622004    -0.14620000
opls_145-9    C    0.54778988    0.50000000    0.54852018    -0.18600000
opls_142-10    C    0.33475010    0.50000000    0.56348022    -0.14790000
opls_142-11    C    0.35956967    0.50000000    0.65174017    -0.11460000
opls_700-12    C    0.29893992    0.50000000    0.69122020    0.01890000
opls_700-13    C    0.34314984    0.50000000    0.78874993    -0.03710000
opls_521-14    C    0.29015003    0.50000000    0.82988010    0.16430000
opls_521-15    C    0.15170996    0.50000000    0.68164039    0.15980000
opls_700-16    C    0.20120960    0.50000000    0.63789985    -0.05670000
opls_142-17    C    0.32510962    0.50000000    0.93045001    -0.15770000
opls_142-18    C    0.04955982    0.50000000    0.62663020    -0.21690000
opls_423-19    C    0.44207992    0.50000000    0.84341996    0.19760000
opls_423-20    C    0.14856975    0.50000000    0.53904988    0.19760000
opls_916-21    C    0.68562005    0.50000000    0.47836038    0.16370000
opls_916-22    C    0.53237996    0.50000000    0.30471024    0.16320000
opls_145-23    C    0.74967981    0.50000000    0.45031014    -0.22760000
opls_145-24    C    0.84541995    0.50000000    0.50470025    -0.09080000
opls_700-25    C    0.89218020    0.50000000    0.59892012    0.08200000
opls_145-26    C    0.83826006    0.50000000    0.63517038    -0.14390000
opls_145-27    C    0.74113977    0.50000000    0.57829994    -0.21400000
opls_145-28    C    0.43488019    0.50000000    0.23348000    -0.20630000
opls_145-29    C    0.39423999    0.50000000    0.13733007    -0.13730000
opls_700-30    C    0.44731013    0.50000000    0.10033995    0.09600000
opls_145-31    C    0.54014988    0.50000000    0.16116017    -0.15510000
opls_145-32    C    0.57904983    0.50000000    0.25600013    -0.20720000
opls_142-33    C    0.99486971    0.50000000    0.65971023    -0.13050000
opls_142-34    C    0.41300001    0.50000000    0.00111013    -0.15050000
opls_146-35    H    0.37111028    0.50000000    0.33509024    0.20830000
opls_146-36    H    0.28825992    0.50000000    0.39179984    0.09380000
opls_146-37    H    0.52674014    0.50000000    0.65987038    0.10300000
opls_146-38    H    0.61117988    0.50000000    0.60466993    0.20830000
opls_144-39    H    0.26480984    0.50000000    0.50906000    0.20980000
opls_144-40    H    0.43204990    0.50000000    0.70044001    0.08120000
opls_144-41    H    0.27194965    0.50000000    0.94514997    0.10480000
opls_144-42    H    0.01858991    0.50000000    0.55436991    0.20910000
opls_146-43    H    0.74043970    0.50000000    0.38891980    0.20880000
opls_146-44    H    0.88138978    0.50000000    0.46959981    0.10200000
opls_146-45    H    0.87210979    0.50000000    0.70922043    0.09480000
opls_146-46    H    0.72604981    0.50000000    0.62763014    0.20910000
opls_146-47    H    0.37672999    0.50000000    0.23433005    0.20930000
opls_146-48    H    0.32028996    0.50000000    0.09179977    0.09910000
opls_146-49    H    0.58406959    0.50000000    0.13376972    0.09140000
opls_146-50    H    0.64495019    0.50000000    0.27319000    0.20950000
opls_144-51    H    0.02618028    0.50000000    0.73320042    0.09820000
opls_144-52    H    0.46700028    0.50000000    0.98924025    0.20950000
