#======================================================================
# Crystal Data Generated By AuToFF
#----------------------------------------------------------------------

data_AuToFF_phase_1

_cell_length_a                         18.7096
_cell_length_b                         18.7096
_cell_length_c                         3.5279
_cell_angle_alpha                      90.00
_cell_angle_beta                       90.00
_cell_angle_gamma                      120.00
_symmetry_space_group_name_H-M_alt     'P 1'
_symmetry_space_group_IT_number        1

loop_
_space_group_symop_operation_xyz
   'x, y, z'

loop_
   _atom_site_label
   _atom_site_type_symbol
   _atom_site_fract_x
   _atom_site_fract_y
   _atom_site_fract_z
   _atom_site_charge
opls_142-0    C    0.38961956    0.54965966    0.50001134    0.11060000
opls_142-1    C    0.45034012    0.83994991    0.50001134    0.11060000
opls_142-2    C    0.16005017    0.61038981    0.50001134    0.11060000
opls_916-3    C    0.50280030    0.51883017    0.50001134    0.19730000
opls_916-4    C    0.48117004    0.98396963    0.50001134    0.19740000
opls_916-5    C    0.01603994    0.49721008    0.50001134    0.19730000
opls_145-6    C    0.58961002    0.55830992    0.50001134    -0.20970000
opls_145-7    C    0.44169000    0.03129978    0.50001134    -0.20970000
opls_145-8    C    0.96870983    0.41038969    0.50001134    -0.20970000
opls_523-9    C    0.63044030    0.51233013    0.50001134    -0.18080000
opls_523-10    C    0.48768015    0.11812017    0.50001134    -0.18080000
opls_523-11    C    0.88187998    0.36956019    0.50001134    -0.18080000
opls_700-12    C    0.58583983    0.42479999    0.50001134    0.00680000
opls_700-13    C    0.57519975    0.16104003    0.50001134    0.00390000
opls_700-14    C    0.83895988    0.41415998    0.50001134    0.00390000
opls_523-15    C    0.49844998    0.38562018    0.50001134    -0.18010000
opls_523-16    C    0.61437979    0.11282979    0.50001134    -0.18010000
opls_523-17    C    0.88717023    0.50155002    0.50001134    -0.18010000
opls_145-18    C    0.45762972    0.43164996    0.50001134    -0.20970000
opls_145-19    C    0.56834970    0.02597977    0.50001134    -0.20970000
opls_145-20    C    0.97402017    0.54238014    0.50001134    -0.20970000
opls_531-21    C    0.62687005    0.37840979    0.50001134    0.32720000
opls_531-22    C    0.62159003    0.24845970    0.50001134    0.32720000
opls_531-23    C    0.75154015    0.37312990    0.50001134    0.32720000
opls_280-24    C    0.41838013    0.69578022    0.50001134    0.27370000
opls_280-25    C    0.30422994    0.72260984    0.50001134    0.27370000
opls_280-26    C    0.27739968    0.58161981    0.50001134    0.27370000
opls_700-27    C    0.36323013    0.60910980    0.50001134    -0.21490000
opls_700-28    C    0.39089024    0.75411020    0.50001134    -0.21620000
opls_700-29    C    0.24588979    0.63678000    0.50001134    -0.21490000
opls_238-30    N    0.46977021    0.56889006    0.50001134    -0.29580000
opls_238-31    N    0.43112011    0.90088990    0.50001134    -0.29580000
opls_238-32    N    0.09910980    0.53022991    0.50001134    -0.29580000
opls_520-33    N    0.58436012    0.29474004    0.50001134    -0.48790000
opls_520-34    N    0.70526025    0.28962000    0.50001134    -0.48780000
opls_520-35    N    0.71038016    0.41563995    0.50001134    -0.48790000
opls_144-36    H    0.34528968    0.48850984    0.50001134    0.11230000
opls_144-37    H    0.51149019    0.85678014    0.50001134    0.11230000
opls_144-38    H    0.14322013    0.65471003    0.50001134    0.11230000
opls_146-39    H    0.62397988    0.62140012    0.50001134    0.23030000
opls_146-40    H    0.37859993    0.00257977    0.50001134    0.23030000
opls_146-41    H    0.99742982    0.37602010    0.50001134    0.23030000
opls_526-42    H    0.69359981    0.54381012    0.50001134    0.23030000
opls_526-43    H    0.45619029    0.14979025    0.50001134    0.23030000
opls_526-44    H    0.85021021    0.30640024    0.50001134    0.23030000
opls_526-45    H    0.46328000    0.32258984    0.50001134    0.23030000
opls_526-46    H    0.67741027    0.14068021    0.50001134    0.23030000
opls_526-47    H    0.85932029    0.53672007    0.50001134    0.23030000
opls_146-48    H    0.39473017    0.40051990    0.50001134    0.23040000
opls_146-49    H    0.59948973    0.99420971    0.50001134    0.23040000
opls_146-50    H    0.00578995    0.60526977    0.50001134    0.23040000
opls_910-51    H    0.50901018    0.62766995    0.50001134    0.27600000
opls_910-52    H    0.37232971    0.88134968    0.50001134    0.27600000
opls_910-53    H    0.11866023    0.49099024    0.50001134    0.27600000
opls_281-54    O    0.49490013    0.72337019    0.50001134    -0.45740000
opls_281-55    O    0.27663965    0.77152982    0.50001134    -0.43730000
opls_281-56    O    0.22846997    0.50510986    0.50001134    -0.43730000
