#======================================================================
# Crystal Data Generated By AuToFF
#----------------------------------------------------------------------

data_AuToFF_phase_1

_cell_length_a                         52.2892
_cell_length_b                         40.7693
_cell_length_c                         8.8687
_cell_angle_alpha                      95.60
_cell_angle_beta                       104.52
_cell_angle_gamma                      129.10
_symmetry_space_group_name_H-M_alt     'P 1'
_symmetry_space_group_IT_number        1

loop_
_space_group_symop_operation_xyz
   'x, y, z'

loop_
   _atom_site_label
   _atom_site_type_symbol
   _atom_site_fract_x
   _atom_site_fract_y
   _atom_site_fract_z
   _atom_site_charge
opls_145-0    C    0.41650015    0.84250004    0.23250041    0.19050000
opls_145-1    C    0.40970000    0.80669980    0.12999964    -0.17980000
opls_145-2    C    0.38570001    0.76289994    0.13130038    -0.12490000
opls_700-3    C    0.36739999    0.75140008    0.23809978    0.06890000
opls_145-4    C    0.37440010    0.78740006    0.34060055    -0.12470000
opls_145-5    C    0.39799988    0.83139982    0.33779962    -0.18280000
opls_716-6    C    0.39489992    0.70619986    0.29130003    -0.18440000
opls_543-7    C    0.35770006    0.68339991    0.24920066    0.21890000
opls_543-8    C    0.36420000    0.63169982    0.25149988    0.21850000
opls_716-9    C    0.26430004    0.48609989    0.19420044    -0.17170000
opls_716-10    C    0.29740000    0.50610004    0.18650006    -0.17780000
opls_543-11    C    0.32020012    0.55350008    0.24620029    0.17560000
opls_543-12    C    0.26589997    0.52079993    0.25899957    0.15350000
opls_700-13    C    0.35529990    0.59019989    0.24940011    -0.12610000
opls_716-14    C    0.19190011    0.51389997    0.26650050    -0.18480000
opls_716-15    C    0.20419995    0.49189996    0.26500032    -0.17360000
opls_543-16    C    0.23929995    0.52229982    0.26699974    0.17050000
opls_543-17    C    0.21889998    0.55819994    0.26570024    0.17120000
opls_716-18    C    0.29190011    0.70290001    0.21730033    -0.16820000
opls_716-19    C    0.25900001    0.67390000    0.22490037    -0.17760000
opls_507-20    C    0.25290012    0.63510011    0.25030072    0.18870000
opls_507-21    C    0.30759998    0.68319981    0.23890004    0.19770000
opls_700-22    C    0.34270010    0.70350004    0.24160063    -0.12610000
opls_700-23    C    0.22099993    0.59519991    0.25750062    -0.12590000
opls_716-24    C    0.39870015    0.67550008    0.29199996    -0.18160000
opls_700-25    C    0.37970017    0.58130012    0.24950045    0.06630000
opls_700-26    C    0.18820014    0.58810007    0.25460059    0.06830000
opls_145-27    C    0.40399998    0.59899992    0.17060006    -0.16090000
opls_145-28    C    0.42349998    0.58660003    0.16289968    -0.16840000
opls_145-29    C    0.42120002    0.55600014    0.23720041    0.20780000
opls_145-30    C    0.39759994    0.53889991    0.31960041    -0.17380000
opls_145-31    C    0.37800000    0.55119998    0.32530013    -0.16450000
opls_145-32    C    0.15219998    0.54689994    0.15760010    -0.16450000
opls_145-33    C    0.12170004    0.53769988    0.16240045    -0.17000000
opls_145-34    C    0.12440009    0.56960005    0.26519976    0.20740000
opls_145-35    C    0.16020003    0.61129998    0.35849996    -0.16760000
opls_145-36    C    0.19060002    0.62000002    0.35440077    -0.15710000
opls_145-37    C    0.57719999    0.17339984    0.22109973    0.19920000
opls_145-38    C    0.56860003    0.18749995    0.09410046    -0.17980000
opls_145-39    C    0.59290001    0.23199994    0.09840034    -0.12450000
opls_700-40    C    0.62690012    0.26590011    0.23170014    0.06890000
opls_145-41    C    0.63539993    0.25149999    0.35720046    -0.12680000
opls_145-42    C    0.61160002    0.20670008    0.35250046    -0.18780000
opls_716-43    C    0.60020008    0.31260004    0.21120048    -0.19350000
opls_543-44    C    0.63670000    0.33480008    0.23600001    0.19350000
opls_543-45    C    0.62950005    0.38580007    0.23079953    0.20720000
opls_716-46    C    0.72930018    0.53060013    0.29320035    -0.18040000
opls_716-47    C    0.69589999    0.51069996    0.29720044    -0.17860000
opls_543-48    C    0.67260009    0.46330016    0.22920024    0.17760000
opls_543-49    C    0.72720004    0.49590007    0.22120007    0.14870000
opls_700-50    C    0.63759994    0.42659995    0.22850032    -0.12610000
opls_716-51    C    0.80539993    0.50799985    0.26839958    -0.17830000
opls_716-52    C    0.79210003    0.52889998    0.26640016    -0.17370000
opls_543-53    C    0.75430003    0.49509990    0.21830004    0.17050000
opls_543-54    C    0.77599988    0.46079987    0.22369997    0.18070000
opls_716-55    C    0.69980007    0.31279996    0.23470051    -0.16520000
opls_716-56    C    0.73319989    0.34199990    0.23170014    -0.19410000
opls_507-57    C    0.74240013    0.38420007    0.23839957    0.18880000
opls_507-58    C    0.68730000    0.33610010    0.24470011    0.19780000
opls_700-59    C    0.65199998    0.31530012    0.24059968    -0.12610000
opls_700-60    C    0.77429998    0.42409997    0.23110056    -0.12610000
opls_716-61    C    0.59590004    0.34270015    0.20690061    -0.17360000
opls_700-62    C    0.61330014    0.43550011    0.22970072    0.06630000
opls_700-63    C    0.80729983    0.43219981    0.23409970    0.06630000
opls_145-64    C    0.61490002    0.46559983    0.15389980    -0.08560000
opls_145-65    C    0.59520002    0.47759998    0.15910028    -0.14760000
opls_145-66    C    0.57130010    0.46020005    0.24050057    0.20820000
opls_145-67    C    0.56910004    0.42970012    0.31509985    -0.16510000
opls_145-68    C    0.58889996    0.41769991    0.30840042    -0.12330000
opls_145-69    C    0.82730004    0.45809993    0.14460013    -0.12420000
opls_145-70    C    0.85890005    0.46869988    0.14849988    -0.16510000
opls_145-71    C    0.87340016    0.45380012    0.24300047    0.20740000
opls_145-72    C    0.85310006    0.42699994    0.32960000    -0.16510000
opls_145-73    C    0.82200001    0.41720001    0.32710011    -0.17000000
opls_700-74    C    0.48010014    0.52640009    0.26180050    0.06420000
opls_145-75    C    0.46129998    0.48619992    0.13289967    -0.12660000
opls_145-76    C    0.47689993    0.46879993    0.11290049    -0.13500000
opls_700-77    C    0.51219993    0.48939989    0.21880052    0.06340000
opls_145-78    C    0.53090010    0.52950016    0.34820058    -0.12670000
opls_145-79    C    0.51530004    0.54690006    0.36800032    -0.10960000
opls_142-80    C    0.52639992    0.46769986    0.18209984    0.01640000
opls_142-81    C    0.46580000    0.54809982    0.29739988    0.02560000
opls_700-82    C    0.47110007    0.96419996    0.24239965    0.05520000
opls_145-83    C    0.50570000    0.98259986    0.25909991    -0.12230000
opls_145-84    C    0.53170004    0.02650013    0.26140036    -0.12280000
opls_700-85    C    0.52500009    0.05490017    0.24590050    0.05520000
opls_145-86    C    0.49030002    0.03640009    0.22920024    -0.11650000
opls_145-87    C    0.46439998    0.99269994    0.22829964    -0.12630000
opls_142-88    C    0.55389994    0.10140004    0.24749979    0.01440000
opls_142-89    C    0.44190013    0.91740003    0.23800068    0.01440000
opls_700-90    C    0.03059989    0.52069981    0.24569982    0.06470000
opls_145-91    C    0.03040011    0.55510003    0.28429958    -0.13880000
opls_145-92    C    0.99959995    0.54579982    0.28439992    -0.12330000
opls_700-93    C    0.96620002    0.50190010    0.24749979    0.06420000
opls_145-94    C    0.96640003    0.46750010    0.20870059    -0.17670000
opls_145-95    C    0.99719993    0.47679990    0.20809977    -0.16820000
opls_142-96    C    0.93460007    0.49590004    0.25210069    0.02780000
opls_142-97    C    0.06240004    0.52690001    0.24270068    0.03520000
opls_145-98    C    0.91990007    0.84229996    0.73660021    0.18930000
opls_145-99    C    0.91309995    0.80660002    0.63419979    -0.18040000
opls_145-100    C    0.88900014    0.76270007    0.63529985    -0.14010000
opls_700-101    C    0.87070008    0.75120002    0.74170035    0.06660000
opls_145-102    C    0.87760010    0.78710003    0.84410077    -0.13080000
opls_145-103    C    0.90120002    0.83110010    0.84160088    -0.18480000
opls_716-104    C    0.89810007    0.70590014    0.79480026    -0.17890000
opls_543-105    C    0.86100024    0.68310020    0.75230076    0.19420000
opls_543-106    C    0.86740005    0.63140002    0.75400039    0.20770000
opls_716-107    C    0.76730002    0.48570018    0.69419982    -0.17000000
opls_716-108    C    0.80050006    0.50570021    0.68710025    -0.18320000
opls_543-109    C    0.82330017    0.55310023    0.74760075    0.18060000
opls_543-110    C    0.76889990    0.52029991    0.75959977    0.14780000
opls_700-111    C    0.85849997    0.58980002    0.75129981    -0.12610000
opls_716-112    C    0.69480018    0.51330020    0.76640078    -0.19180000
opls_716-113    C    0.70709999    0.49129999    0.76460080    -0.18020000
opls_543-114    C    0.74230011    0.52180003    0.76740049    0.17050000
opls_543-115    C    0.72190013    0.55770012    0.76660023    0.17610000
opls_716-116    C    0.79510003    0.70260007    0.72059988    -0.18840000
opls_716-117    C    0.76220017    0.67350021    0.72770068    -0.19350000
opls_507-118    C    0.75609996    0.63470002    0.75239986    0.18870000
opls_507-119    C    0.81080002    0.68290001    0.74180069    0.19950000
opls_700-120    C    0.84599990    0.70329988    0.74479983    -0.12610000
opls_700-121    C    0.72410002    0.59470018    0.75900019    -0.12600000
opls_716-122    C    0.90190015    0.67520006    0.79500095    -0.18340000
opls_700-123    C    0.88280021    0.58090027    0.75090092    0.06830000
opls_700-124    C    0.69130001    0.58760014    0.75580037    0.06830000
opls_145-125    C    0.90710010    0.59870005    0.67210087    -0.16920000
opls_145-126    C    0.92660007    0.58629997    0.66370057    -0.16550000
opls_145-127    C    0.92419992    0.55549992    0.73719979    0.20800000
opls_145-128    C    0.90060000    0.53840000    0.81959979    -0.17760000
opls_145-129    C    0.88110006    0.55070007    0.82600067    -0.15760000
opls_145-130    C    0.65530005    0.54650011    0.65820030    -0.17340000
opls_145-131    C    0.62480011    0.53730006    0.66260051    -0.16820000
opls_145-132    C    0.62740013    0.56910014    0.76590030    0.20530000
opls_145-133    C    0.66330012    0.61080025    0.85990043    -0.16560000
opls_145-134    C    0.69370006    0.61950007    0.85600068    -0.12990000
opls_145-135    C    0.08040002    0.17310001    0.72480065    0.18860000
opls_145-136    C    0.07180013    0.18730010    0.59800083    -0.18070000
opls_145-137    C    0.09590012    0.23170022    0.60190057    -0.12150000
opls_700-138    C    0.13010016    0.26560030    0.73460079    0.06830000
opls_145-139    C    0.13880003    0.25120019    0.85980008    -0.12660000
opls_145-140    C    0.11500018    0.20650024    0.85560055    -0.19180000
opls_716-141    C    0.10340012    0.31230022    0.71420024    -0.18160000
opls_543-142    C    0.13980010    0.33450018    0.73840019    0.19470000
opls_543-143    C    0.13260016    0.38540012    0.73240068    0.20790000
opls_716-144    C    0.23210011    0.53000011    0.79100086    -0.17720000
opls_716-145    C    0.19869992    0.51009993    0.79510005    -0.18240000
opls_543-146    C    0.17550009    0.46269998    0.72860004    0.17120000
opls_543-147    C    0.23010019    0.49530022    0.72050077    0.14880000
opls_700-148    C    0.14059995    0.42619992    0.72889983    -0.12730000
opls_716-149    C    0.30830011    0.50740019    0.76840020    -0.18280000
opls_716-150    C    0.29500011    0.52830022    0.76590030    -0.17760000
opls_543-151    C    0.25719999    0.49450003    0.71800087    0.17770000
opls_543-152    C    0.27890013    0.46030017    0.72430017    0.17380000
opls_716-153    C    0.20290005    0.31230012    0.73609974    -0.16820000
opls_716-154    C    0.23620016    0.34150019    0.73270047    -0.17830000
opls_507-155    C    0.24540004    0.38380013    0.73960059    0.18910000
opls_507-156    C    0.19040000    0.33580010    0.74659980    0.20330000
opls_700-157    C    0.15509998    0.31490003    0.74299985    -0.12600000
opls_700-158    C    0.27730013    0.42360015    0.73200055    -0.12610000
opls_716-159    C    0.09909993    0.34240003    0.70950023    -0.18030000
opls_700-160    C    0.11630008    0.43490002    0.72970010    0.06630000
opls_700-161    C    0.31029999    0.43170001    0.73450045    0.06630000
opls_145-162    C    0.11740001    0.46450001    0.65159997    -0.09180000
opls_145-163    C    0.09760001    0.47640010    0.65610053    -0.18430000
opls_145-164    C    0.07420004    0.45949990    0.73939990    0.20780000
opls_145-165    C    0.07239993    0.42960000    0.81660066    -0.16850000
opls_145-166    C    0.09220008    0.41759998    0.81030012    -0.09180000
opls_145-167    C    0.33030001    0.45760013    0.64509999    -0.12330000
opls_145-168    C    0.36180000    0.46809999    0.64869994    -0.16820000
opls_145-169    C    0.37630000    0.45320014    0.74270006    0.20230000
opls_145-170    C    0.35600006    0.42630021    0.82930083    -0.16850000
opls_145-171    C    0.32490004    0.41660003    0.82710073    -0.15760000
opls_700-172    C    0.98290000    0.52570007    0.75999990    0.05950000
opls_145-173    C    0.96430009    0.48570011    0.62989992    -0.12670000
opls_145-174    C    0.97980009    0.46830001    0.60980039    -0.16450000
opls_700-175    C    0.01499991    0.48869999    0.71630000    0.06470000
opls_145-176    C    0.03360016    0.52860018    0.84650033    -0.12660000
opls_145-177    C    0.01810011    0.54600007    0.86670020    -0.16450000
opls_142-178    C    0.02920013    0.46700018    0.67980001    0.02550000
opls_142-179    C    0.96870012    0.54740021    0.79640079    0.01640000
opls_700-180    C    0.97439999    0.96400010    0.74670015    0.05490000
opls_145-181    C    0.00910002    0.98249995    0.76399999    -0.11650000
opls_145-182    C    0.03510016    0.02640033    0.76640078    -0.12680000
opls_700-183    C    0.02830005    0.05469998    0.75030010    0.05520000
opls_145-184    C    0.99360014    0.03620023    0.73310060    -0.12910000
opls_145-185    C    0.96780012    0.99250008    0.73220000    -0.12230000
opls_142-186    C    0.05729996    0.10120007    0.75169994    0.01440000
opls_142-187    C    0.94530011    0.91729993    0.74220083    0.01440000
opls_700-188    C    0.53359998    0.52020012    0.74589988    0.06470000
opls_145-189    C    0.53329996    0.55450006    0.78390006    -0.08560000
opls_145-190    C    0.50250003    0.54520007    0.78380096    -0.16990000
opls_700-191    C    0.46910017    0.50130024    0.74720062    0.06380000
opls_145-192    C    0.46940004    0.46699998    0.70920044    -0.13000000
opls_145-193    C    0.50020001    0.47630020    0.70869997    -0.12330000
opls_142-194    C    0.43740010    0.49530007    0.75140015    0.02550000
opls_142-195    C    0.56540009    0.52640011    0.74270006    0.02770000
opls_542-196    N    0.34040006    0.63859996    0.22689979    -0.30030000
opls_542-197    N    0.30009991    0.56069997    0.29079956    -0.25330000
opls_542-198    N    0.24690006    0.56130012    0.27040024    -0.20990000
opls_542-199    N    0.28339990    0.64249989    0.25710049    -0.31630000
opls_542-200    N    0.65330005    0.37899999    0.24910032    -0.30250000
opls_542-201    N    0.69240004    0.45609995    0.18080034    -0.24540000
opls_542-202    N    0.74590000    0.45499993    0.18889961    -0.22240000
opls_542-203    N    0.71360010    0.37900003    0.24749979    -0.31060000
opls_750-204    N    0.55610005    0.47860008    0.27080038    -0.32270000
opls_750-205    N    0.43629982    0.53749980    0.20729950    -0.32270000
opls_750-206    N    0.54979999    0.12870005    0.21849949    -0.33440000
opls_750-207    N    0.44389999    0.88720002    0.23580057    -0.33440000
opls_750-208    N    0.90349996    0.45939979    0.24019955    -0.31620000
opls_750-209    N    0.09470000    0.56450007    0.27150030    -0.31340000
opls_542-210    N    0.84360006    0.63829995    0.72950065    -0.30010000
opls_542-211    N    0.80320003    0.56019993    0.79220002    -0.25340000
opls_542-212    N    0.74990009    0.56080019    0.77160002    -0.22800000
opls_542-213    N    0.78660004    0.64209990    0.75929998    -0.31660000
opls_542-214    N    0.15640022    0.37860024    0.75070023    -0.30020000
opls_542-215    N    0.19530010    0.45550017    0.68110075    -0.24530000
opls_542-216    N    0.24890008    0.45450024    0.68940071    -0.22180000
opls_542-217    N    0.21670003    0.37860007    0.74920005    -0.31760000
opls_750-218    N    0.05890009    0.47779997    0.76910012    -0.31670000
opls_750-219    N    0.93930007    0.53699993    0.70630041    -0.32270000
opls_750-220    N    0.05320001    0.12850008    0.72260054    -0.33430000
opls_750-221    N    0.94720011    0.88700014    0.74020017    -0.33440000
opls_750-222    N    0.40640019    0.45870027    0.73970093    -0.31350000
opls_750-223    N    0.59770005    0.56400016    0.77189981    -0.31350000
opls_146-224    H    0.44090004    0.60110003    0.09630057    0.11330000
opls_146-225    H    0.40719988    0.62229981    0.10789945    0.11150000
opls_146-226    H    0.36070017    0.53660009    0.39260040    0.11170000
opls_146-227    H    0.39420001    0.51520006    0.38000057    0.11520000
opls_547-228    H    0.30390011    0.48830006    0.13530046    0.12180000
opls_547-229    H    0.24100005    0.45050000    0.15230051    0.12620000
opls_547-230    H    0.42380000    0.68329990    0.32440076    0.12350000
opls_547-231    H    0.41669997    0.74199987    0.32379994    0.12430000
opls_146-232    H    0.38100006    0.73669997    0.04689972    0.11650000
opls_146-233    H    0.42299989    0.81329982    0.04520008    0.11240000
opls_146-234    H    0.40280018    0.85760008    0.42300055    0.11520000
opls_146-235    H    0.36179997    0.78119999    0.42819979    0.11200000
opls_547-236    H    0.30370022    0.73430015    0.19500070    0.12350000
opls_547-237    H    0.24030002    0.67839991    0.21090069    0.12160000
opls_146-238    H    0.21710011    0.65270007    0.43340027    0.11160000
opls_146-239    H    0.16460004    0.63770008    0.44009970    0.11170000
opls_146-240    H    0.14760004    0.52089998    0.07170049    0.11280000
opls_146-241    H    0.09530009    0.50540014    0.08070037    0.11510000
opls_547-242    H    0.16610015    0.49960010    0.26800069    0.12010000
opls_547-243    H    0.18970003    0.45780008    0.26400060    0.12180000
opls_545-244    H    0.31309986    0.61369986    0.17119964    0.27560000
opls_146-245    H    0.59860018    0.50140011    0.09920060    0.11370000
opls_146-246    H    0.63230008    0.48029999    0.08750014    0.11590000
opls_146-247    H    0.58589994    0.39459985    0.37179972    0.11160000
opls_146-248    H    0.55160008    0.41500007    0.38119973    0.11310000
opls_547-249    H    0.68960007    0.52820012    0.35159985    0.13420000
opls_547-250    H    0.75309991    0.56609987    0.34120012    0.12690000
opls_547-251    H    0.57110007    0.33490004    0.18520056    0.10320000
opls_547-252    H    0.57919993    0.27759989    0.19630020    0.12150000
opls_146-253    H    0.58489987    0.24049988    0.99529999    0.11510000
opls_146-254    H    0.54270003    0.16310002    0.98860057    0.11610000
opls_146-255    H    0.61950008    0.19810016    0.45550046    0.11510000
opls_146-256    H    0.66119990    0.27589990    0.46359973    0.11370000
opls_547-257    H    0.68509993    0.27819990    0.22880011    0.11670000
opls_547-258    H    0.74940003    0.33460001    0.22139952    0.12230000
opls_146-259    H    0.80890011    0.39750021    0.40170062    0.11160000
opls_146-260    H    0.86259998    0.41429995    0.40560037    0.11220000
opls_146-261    H    0.81769996    0.47009995    0.06560064    0.11650000
opls_146-262    H    0.87190001    0.48809987    0.07310033    0.11090000
opls_547-263    H    0.83339986    0.52499984    0.30650011    0.12640000
opls_547-264    H    0.80780009    0.56460003    0.29830049    0.12720000
opls_545-265    H    0.68060006    0.40390004    0.29530012    0.28630000
opls_146-266    H    0.43409991    0.46799999    0.04579966    0.11950000
opls_146-267    H    0.46090012    0.43770001    0.01020028    0.11280000
opls_146-268    H    0.55809998    0.54749991    0.43560038    0.11680000
opls_146-269    H    0.53140011    0.57790011    0.47070053    0.11520000
opls_144-270    H    0.50740003    0.43910003    0.06220013    0.04690000
opls_144-271    H    0.48480003    0.57659987    0.41780007    0.04630000
opls_146-272    H    0.51240010    0.96229997    0.27059969    0.11640000
opls_146-273    H    0.55800011    0.03920001    0.27480046    0.11730000
opls_146-274    H    0.48360005    0.05670009    0.21709965    0.11570000
opls_146-275    H    0.43809997    0.98010003    0.21540001    0.11210000
opls_144-276    H    0.58009998    0.11070000    0.27150030    0.04690000
opls_144-277    H    0.41700009    0.90970010    0.23140035    0.04860000
opls_146-278    H    0.05490014    0.58990008    0.31549999    0.11520000
opls_146-279    H    0.00160009    0.57420011    0.31570067    0.09990000
opls_146-280    H    0.94189996    0.43269984    0.17769962    0.11520000
opls_146-281    H    0.99510000    0.44839983    0.17659957    0.11320000
opls_144-282    H    0.94109990    0.52829978    0.27379951    0.04690000
opls_144-283    H    0.05540000    0.49420000    0.21349970    0.04670000
opls_146-284    H    0.94400006    0.60090015    0.59720056    0.11520000
opls_146-285    H    0.91039990    0.62209990    0.60999984    0.11370000
opls_146-286    H    0.86380016    0.53600020    0.89320060    0.11160000
opls_146-287    H    0.89710005    0.51450001    0.87940037    0.11160000
opls_547-288    H    0.80700025    0.48800022    0.63560087    0.12750000
opls_547-289    H    0.74400023    0.45000023    0.65150087    0.12610000
opls_547-290    H    0.92700016    0.68300019    0.82750086    0.12220000
opls_547-291    H    0.91999998    0.74179991    0.82759996    0.12090000
opls_146-292    H    0.88450011    0.73660010    0.55090042    0.11210000
opls_146-293    H    0.92639991    0.81319993    0.54970002    0.11650000
opls_146-294    H    0.90600006    0.85740002    0.92670022    0.11170000
opls_146-295    H    0.86500019    0.78090017    0.93150057    0.11570000
opls_547-296    H    0.80700023    0.73410019    0.69880072    0.12500000
opls_547-297    H    0.74350006    0.67810009    0.71390045    0.11720000
opls_146-298    H    0.72010005    0.65210012    0.93570010    0.11470000
opls_146-299    H    0.66760017    0.63710015    0.94190029    0.11340000
opls_146-300    H    0.65060009    0.52050016    0.57190055    0.11160000
opls_146-301    H    0.59830006    0.50509999    0.58060064    0.11190000
opls_547-302    H    0.66900000    0.49890005    0.76740049    0.12220000
opls_547-303    H    0.69259997    0.45709993    0.76289993    0.12110000
opls_545-304    H    0.81629998    0.61339996    0.67359982    0.27560000
opls_146-305    H    0.10069999    0.49970007    0.59430053    0.11710000
opls_146-306    H    0.13459999    0.47890007    0.58370012    0.11280000
opls_146-307    H    0.08950004    0.39500010    0.87550063    0.11520000
opls_146-308    H    0.05520008    0.41540022    0.88440017    0.11090000
opls_547-309    H    0.19230007    0.52770010    0.84830030    0.12810000
opls_547-310    H    0.25580014    0.56560007    0.83780024    0.12320000
opls_547-311    H    0.07430008    0.33470010    0.68820031    0.12300000
opls_547-312    H    0.08250010    0.27740025    0.70010022    0.12860000
opls_146-313    H    0.08789998    0.24010006    0.49899967    0.12270000
opls_146-314    H    0.04579999    0.16279995    0.49300016    0.11510000
opls_146-315    H    0.12300003    0.19790011    0.95839987    0.11330000
opls_146-316    H    0.16460007    0.27570009    0.96580046    0.11640000
opls_547-317    H    0.18810019    0.27780026    0.73010023    0.12380000
opls_547-318    H    0.25229993    0.33410000    0.72190062    0.12320000
opls_146-319    H    0.31190006    0.39690012    0.90170000    0.11320000
opls_146-320    H    0.36540004    0.41360011    0.90489982    0.11610000
opls_146-321    H    0.32059998    0.46960003    0.56640028    0.11310000
opls_146-322    H    0.37480008    0.48760018    0.57330040    0.11290000
opls_547-323    H    0.33640003    0.52450004    0.80659983    0.12410000
opls_547-324    H    0.31070007    0.56400017    0.79730016    0.12750000
opls_545-325    H    0.18370023    0.40350030    0.79640079    0.27920000
opls_146-326    H    0.93710002    0.46779993    0.54209999    0.11200000
opls_146-327    H    0.96389996    0.43739997    0.50640026    0.11610000
opls_146-328    H    0.06080008    0.54660013    0.93419992    0.11520000
opls_146-329    H    0.03400005    0.57680003    0.97020067    0.11190000
opls_144-330    H    0.01020001    0.43840015    0.55960051    0.04670000
opls_144-331    H    0.98750015    0.57560020    0.91750090    0.04640000
opls_146-332    H    0.01580011    0.96220005    0.77589990    0.11570000
opls_146-333    H    0.06149995    0.03910009    0.78019977    0.11170000
opls_146-334    H    0.98690018    0.05650025    0.72059988    0.11530000
opls_146-335    H    0.94140007    0.97979989    0.71879990    0.11370000
opls_144-336    H    0.08350012    0.11050012    0.77589990    0.04670000
opls_144-337    H    0.92029999    0.90950003    0.73510003    0.04690000
opls_146-338    H    0.55779996    0.58939999    0.81470034    0.11170000
opls_146-339    H    0.50450003    0.57349996    0.81460000    0.11150000
opls_146-340    H    0.44500009    0.43210026    0.67860085    0.11170000
opls_146-341    H    0.49819998    0.44790001    0.67780059    0.11430000
opls_144-342    H    0.44390008    0.52760007    0.77260097    0.04860000
opls_144-343    H    0.55840005    0.49370012    0.71330087    0.04670000
opls_545-344    H    0.18440015    0.42540014    0.60840055    0.29430000
opls_545-345    H    0.22410011    0.42380011    0.66129977    0.24170000
opls_545-346    H    0.31080000    0.59089994    0.36139999    0.27620000
opls_545-347    H    0.26960009    0.58940014    0.26510066    0.26130000
opls_545-348    H    0.81390019    0.59040031    0.86330093    0.28880000
opls_545-349    H    0.77269998    0.58899996    0.76700036    0.24640000
opls_545-350    H    0.68140008    0.42610002    0.10719953    0.28470000
opls_545-351    H    0.72110007    0.42430004    0.16050013    0.27000000
