#======================================================================
# Crystal Data Generated By AuToFF
#----------------------------------------------------------------------

data_AuToFF_phase_1

_cell_length_a                         34.1899
_cell_length_b                         19.0812
_cell_length_c                         4.5080
_cell_angle_alpha                      90.00
_cell_angle_beta                       90.00
_cell_angle_gamma                      90.00
_symmetry_space_group_name_H-M_alt     'P 1'
_symmetry_space_group_IT_number        1

loop_
_space_group_symop_operation_xyz
   'x, y, z'

loop_
   _atom_site_label
   _atom_site_type_symbol
   _atom_site_fract_x
   _atom_site_fract_y
   _atom_site_fract_z
   _atom_site_charge
opls_142-0    C    0.20461013    0.27171981    0.29226043    0.05120000
opls_145-1    C    0.13744000    0.26094009    0.42108917    0.19720000
opls_145-2    C    0.10995996    0.28634992    0.62570098    -0.16900000
opls_145-3    C    0.07544012    0.24873016    0.67192103    -0.12510000
opls_700-4    C    0.06819997    0.18772981    0.50854037    0.06420000
opls_145-5    C    0.09440010    0.16633021    0.28379991    -0.12590000
opls_145-6    C    0.12970000    0.20150986    0.25167036    -0.17760000
opls_700-7    C    0.92632005    0.18736977    0.52527063    0.06660000
opls_145-8    C    0.92426009    0.24507002    0.33212955    -0.12760000
opls_145-9    C    0.89080986    0.28536989    0.32771074    -0.17040000
opls_145-10    C    0.85898994    0.26905016    0.51108030    0.19570000
opls_145-11    C    0.86052986    0.21034002    0.69988909    -0.17270000
opls_145-12    C    0.89457998    0.17030009    0.71033052    -0.13370000
opls_142-13    C    0.82550987    0.37672998    0.44163931    0.05690000
opls_145-14    C    0.24988988    0.41402008    0.83450089    -0.13170000
opls_145-15    C    0.22208986    0.37281984    0.97535936    -0.11920000
opls_700-16    C    0.23364005    0.31441995    0.14157054    0.05900000
opls_145-17    C    0.27350007    0.29529013    0.15655945    -0.13370000
opls_145-18    C    0.30152998    0.33824026    0.02336069    -0.13650000
opls_145-19    C    0.28005990    0.62487003    0.87031056    -0.13430000
opls_145-20    C    0.24860997    0.66085990    0.98311890    -0.13500000
opls_700-21    C    0.22578013    0.63055992    0.20547028    0.05900000
opls_145-22    C    0.23603988    0.56586011    0.33005989    -0.13780000
opls_145-23    C    0.26923009    0.53170975    0.23055013    -0.13240000
opls_142-24    C    0.18979991    0.66081012    0.29988909    0.11300000
opls_145-25    C    0.14190009    0.74881978    0.19429902    0.20850000
opls_145-26    C    0.13665995    0.81079020    0.03515084    -0.17130000
opls_145-27    C    0.10269992    0.84832977    0.07391083    -0.17170000
opls_700-28    C    0.07430996    0.82410016    0.27173913    0.09490000
opls_145-29    C    0.07932986    0.76197985    0.43381100    -0.13780000
opls_145-30    C    0.11307989    0.72398015    0.39212955    -0.16840000
opls_700-31    C    0.03781000    0.86177022    0.29155058    0.03080000
opls_700-32    C    0.03608990    0.93152003    0.38033052    0.03080000
opls_700-33    C    0.00005001    0.96725992    0.37470941    -0.00480000
opls_700-34    C    0.96682997    0.93204987    0.27811890    0.02990000
opls_145-35    C    0.96997008    0.86171991    0.18793035    0.03010000
opls_145-36    C    0.00489999    0.82700983    0.19736912    -0.12940000
opls_145-37    C    0.06966999    0.96653984    0.48340949    -0.08470000
opls_145-38    C    0.06772000    0.03539977    0.56602928    -0.12700000
opls_700-39    C    0.03271990    0.07366989    0.53328971    0.02990000
opls_700-40    C    0.99799999    0.03781995    0.45986025    0.02560000
opls_700-41    C    0.96285014    0.07437006    0.45765972    0.03050000
opls_145-42    C    0.92869005    0.03777016    0.37066105    -0.11920000
opls_145-43    C    0.93078014    0.96872000    0.28448980    -0.11850000
opls_700-44    C    0.03226011    0.14652014    0.55710958    0.03210000
opls_145-45    C    0.99736998    0.18189999    0.57269077    -0.09970000
opls_700-46    C    0.96234005    0.14572983    0.53206965    -0.00300000
opls_700-47    C    0.93648007    0.82123975    0.08501109    0.07400000
opls_145-48    C    0.91270989    0.84915991    0.86204082    -0.13500000
opls_145-49    C    0.87657993    0.81899985    0.81049024    -0.18760000
opls_145-50    C    0.86618007    0.75742983    0.95765972    0.21200000
opls_145-51    C    0.89203010    0.72494026    0.15716060    -0.17030000
opls_145-52    C    0.92734989    0.75785014    0.22336957    -0.12180000
opls_142-53    C    0.79731002    0.76382984    0.91446983    0.09480000
opls_700-54    C    0.76150998    0.72733004    0.85098048    0.04160000
opls_145-55    C    0.72915013    0.73636983    0.04246894    -0.12800000
opls_145-56    C    0.70008014    0.68535994    0.04667036    -0.12370000
opls_700-57    C    0.70326997    0.62751976    0.85687001    0.07640000
opls_145-58    C    0.73196002    0.62578978    0.63452085    -0.17320000
opls_145-59    C    0.76191010    0.67383026    0.63996894    -0.13430000
opls_700-60    C    0.79057997    0.40841981    0.32657054    0.05290000
opls_145-61    C    0.79198009    0.47982988    0.24358030    -0.13330000
opls_145-62    C    0.76029997    0.50963985    0.09685004    -0.12210000
opls_700-63    C    0.72628993    0.47032996    0.03531056    0.06170000
opls_145-64    C    0.72475994    0.39999004    0.14250000    -0.12000000
opls_145-65    C    0.75632014    0.37027021    0.28537933    -0.13370000
opls_145-66    C    0.35420987    0.56010995    0.76159938    -0.20380000
opls_700-67    C    0.32243002    0.52014024    0.84848935    0.01740000
opls_700-68    C    0.32043001    0.44879987    0.76531943    0.03300000
opls_145-69    C    0.34879014    0.42261021    0.57574978    -0.25100000
opls_700-70    C    0.29022986    0.55907018    0.99047915    0.06960000
opls_700-71    C    0.29005993    0.39977989    0.87293035    0.06740000
opls_182-72    C    0.59140009    0.31051978    0.26486025    -0.02860000
opls_182-73    C    0.62057011    0.35286984    0.43372893    -0.02070000
opls_166-74    C    0.62592988    0.46120999    0.70751996    0.13710000
opls_166-75    C    0.61158997    0.52739974    0.77962067    0.15660000
opls_182-76    C    0.56243013    0.58262007    0.06322981    -0.02020000
opls_182-77    C    0.51885001    0.59044976    0.10718057    -0.02740000
opls_182-78    C    0.51035013    0.69584984    0.83011091    -0.02350000
opls_182-79    C    0.47982006    0.73235017    0.62655058    -0.02270000
opls_182-80    C    0.43029988    0.69815997    0.28998891    -0.02680000
opls_182-81    C    0.39898011    0.65520984    0.43074978    -0.01430000
opls_166-82    C    0.38141995    0.53521005    0.55500000    0.13650000
opls_166-83    C    0.38044013    0.46375018    0.47769077    0.29910000
opls_182-84    C    0.42101995    0.36278012    0.36618012    -0.02020000
opls_182-85    C    0.46003001    0.36124982    0.52366903    -0.01750000
opls_182-86    C    0.50364991    0.30753988    0.20992014    -0.01430000
opls_182-87    C    0.53611008    0.32115014    0.98568101    -0.01730000
opls_145-88    C    0.66624003    0.44841991    0.74687001    -0.23520000
opls_700-89    C    0.69051006    0.49790003    0.87793035    0.02780000
opls_700-90    C    0.67721988    0.56810001    0.88055013    0.02380000
opls_145-91    C    0.63812003    0.58196025    0.82643966    -0.26450000
opls_750-92    N    0.17129006    0.30075991    0.35750000    -0.30450000
opls_750-93    N    0.82459001    0.30873006    0.49931899    -0.30420000
opls_750-94    N    0.17731991    0.71454992    0.14775954    -0.30210000
opls_750-95    N    0.82942009    0.72754020    0.90492902    -0.30790000
opls_179-96    O    0.41075990    0.43472004    0.30277063    -0.25190000
opls_180-97    O    0.49011989    0.37216003    0.31604037    -0.17910000
opls_180-98    O    0.56614994    0.35778987    0.12519077    -0.15190000
opls_179-99    O    0.60110003    0.40920016    0.59389086    -0.25240000
opls_179-100    O    0.57108006    0.53895981    0.80970941    -0.25090000
opls_180-101    O    0.49996987    0.62365994    0.86574091    -0.21960000
opls_180-102    O    0.46514000    0.68050018    0.43122005    -0.18290000
opls_179-103    O    0.40954990    0.58094984    0.43031056    -0.25260000
opls_144-104    H    0.20927993    0.21585016    0.31488021    0.09380000
opls_146-105    H    0.11549990    0.33352986    0.75226043    0.11560000
opls_146-106    H    0.05467989    0.26663994    0.83816992    0.10880000
opls_146-107    H    0.08788999    0.12211024    0.13519077    0.11530000
opls_146-108    H    0.14962986    0.18375993    0.07893079    0.10570000
opls_146-109    H    0.94834995    0.25742983    0.18352928    0.10840000
opls_146-110    H    0.88936996    0.32812978    0.16578083    0.07100000
opls_146-111    H    0.83564006    0.19745980    0.83728926    0.11650000
opls_146-112    H    0.89584994    0.12574995    0.86224933    0.10460000
opls_144-113    H    0.85278986    0.40403014    0.42919920    0.10090000
opls_146-114    H    0.24007997    0.45933013    0.71789929    0.23660000
opls_146-115    H    0.19119009    0.38671991    0.95381988    0.10460000
opls_146-116    H    0.28245008    0.24894975    0.27795918    0.11350000
opls_146-117    H    0.33229989    0.32460013    0.04395963    0.10800000
opls_146-118    H    0.29531002    0.64666006    0.68041925    0.11400000
opls_146-119    H    0.24048008    0.71078024    0.87917036    0.08170000
opls_146-120    H    0.21736010    0.54324990    0.49753993    0.11500000
opls_146-121    H    0.27658987    0.48159026    0.32362910    0.09510000
opls_144-122    H    0.17383994    0.63866004    0.47986912    0.10100000
opls_146-123    H    0.15923007    0.82906997    0.88511979    0.11670000
opls_146-124    H    0.09863000    0.89665011    0.95246007    0.11800000
opls_146-125    H    0.05703000    0.74351980    0.58594055    0.11390000
opls_146-126    H    0.11583011    0.67545018    0.51797915    0.10380000
opls_146-127    H    0.00778008    0.77307979    0.11862910    0.10510000
opls_146-128    H    0.09774992    0.94034023    0.50185892    0.11220000
opls_146-129    H    0.09467006    0.05937991    0.64828971    0.10460000
opls_146-130    H    0.90020006    0.06313020    0.35980035    0.10580000
opls_146-131    H    0.90305002    0.94373991    0.23076974    0.10720000
opls_146-132    H    0.99690991    0.23901013    0.58925022    0.10580000
opls_146-133    H    0.92080000    0.89769983    0.75218057    0.11180000
opls_146-134    H    0.85717010    0.84388980    0.65133097    0.10910000
opls_146-135    H    0.88413011    0.67718016    0.27326087    0.11400000
opls_146-136    H    0.94629993    0.73571998    0.39360914    0.10450000
opls_144-137    H    0.79658993    0.81784007    0.98950976    0.10780000
opls_146-138    H    0.72902992    0.77693017    0.20944099    0.11960000
opls_146-139    H    0.67721988    0.68760979    0.21342946    0.11250000
opls_146-140    H    0.73302993    0.58215993    0.48555013    0.24050000
opls_146-141    H    0.78690988    0.66589994    0.49379991    0.10390000
opls_146-142    H    0.81801000    0.51066023    0.28710958    0.11080000
opls_146-143    H    0.76285014    0.56465002    0.04925909    0.09280000
opls_146-144    H    0.69931997    0.36745016    0.11929902    0.09510000
opls_146-145    H    0.75433008    0.31519978    0.35444987    0.06820000
opls_146-146    H    0.35581005    0.61314016    0.84935892    0.10800000
opls_146-147    H    0.34498989    0.36855020    0.50070985    0.04590000
opls_185-148    H    0.57662994    0.27487999    0.42450089    0.05740000
opls_185-149    H    0.60727993    0.27702975    0.09781056    0.05230000
opls_185-150    H    0.63995010    0.37674989    0.26444987    0.05690000
opls_185-151    H    0.63664006    0.31709012    0.58753106    0.05630000
opls_185-152    H    0.57482005    0.55768977    0.26281056    0.06690000
opls_185-153    H    0.57498004    0.63662977    0.04212067    0.05650000
opls_185-154    H    0.51617992    0.61821007    0.31631988    0.08960000
opls_185-155    H    0.50542997    0.53738025    0.13830080    0.05650000
opls_185-156    H    0.51273008    0.72549001    0.04094055    0.05720000
opls_185-157    H    0.53907996    0.69885018    0.71200089    0.05640000
opls_185-158    H    0.49399004    0.77595015    0.49842946    0.05530000
opls_185-159    H    0.45604989    0.75692986    0.76303017    0.05620000
opls_185-160    H    0.42284008    0.75596975    0.29488909    0.04240000
opls_185-161    H    0.43233996    0.68107981    0.05887090    0.07590000
opls_185-162    H    0.37081009    0.66330996    0.30883097    0.05650000
opls_185-163    H    0.39625006    0.67610004    0.65826087    0.05820000
opls_185-164    H    0.40132992    0.33344024    0.51401952    0.07030000
opls_185-165    H    0.42222001    0.33253988    0.15320985    0.05630000
opls_185-166    H    0.46239006    0.31034002    0.64655058    0.05630000
opls_185-167    H    0.46108003    0.40333994    0.69425022    0.05690000
opls_185-168    H    0.51473008    0.27319980    0.39517968    0.05240000
opls_185-169    H    0.48026990    0.27574995    0.09730035    0.05290000
opls_185-170    H    0.52464003    0.35661017    0.81139973    0.05700000
opls_185-171    H    0.54570999    0.27135977    0.87576974    0.05650000
opls_146-172    H    0.67871009    0.39799017    0.68984028    0.11210000
opls_146-173    H    0.62859997    0.63768002    0.82062999    0.09260000
