#======================================================================
# Crystal Data Generated By AuToFF
#----------------------------------------------------------------------

data_AuToFF_phase_1

_cell_length_a                         23.1114
_cell_length_b                         23.2225
_cell_length_c                         15.9097
_cell_angle_alpha                      89.83
_cell_angle_beta                       89.99
_cell_angle_gamma                      119.95
_symmetry_space_group_name_H-M_alt     'P 1'
_symmetry_space_group_IT_number        1

loop_
_space_group_symop_operation_xyz
   'x, y, z'

loop_
   _atom_site_label
   _atom_site_type_symbol
   _atom_site_fract_x
   _atom_site_fract_y
   _atom_site_fract_z
   _atom_site_charge
opls_916-0    C    0.07042002    0.03733986    0.47863994    0.17460000
opls_916-1    C    0.96528971    0.03184984    0.47849035    0.18320000
opls_916-2    C    0.96998995    0.92752001    0.47689005    0.21070000
opls_145-3    C    0.10378971    0.09525971    0.52746015    -0.16550000
opls_145-4    C    0.90707991    0.00714971    0.52748026    -0.18070000
opls_145-5    C    0.99484994    0.89426987    0.52587997    -0.17030000
opls_145-6    C    0.17309014    0.13165006    0.52747021    -0.12930000
opls_145-7    C    0.87047982    0.03974982    0.52750981    -0.12540000
opls_145-8    C    0.96214006    0.82530008    0.52608991    -0.12890000
opls_700-9    C    0.21083019    0.11165015    0.47891022    0.05360000
opls_700-10    C    0.89052017    0.09727002    0.47881028    0.05690000
opls_700-11    C    0.90434985    0.78777010    0.47758020    0.05350000
opls_145-12    C    0.17686972    0.05337989    0.43027983    -0.12640000
opls_145-13    C    0.94909017    0.12171013    0.43003030    -0.11880000
opls_145-14    C    0.87974963    0.82160964    0.42879016    -0.12310000
opls_145-15    C    0.10781994    0.01666980    0.43015035    -0.13510000
opls_145-16    C    0.98601994    0.08969983    0.42987002    -0.19650000
opls_145-17    C    0.91185962    0.89032979    0.42845012    -0.16480000
opls_145-18    C    0.38920997    0.17747969    0.43240999    0.20030000
opls_145-19    C    0.82424986    0.20895006    0.43227988    0.20000000
opls_145-20    C    0.79224006    0.61027001    0.43156019    0.20020000
opls_145-21    C    0.42879989    0.14734975    0.42355999    -0.16720000
opls_145-22    C    0.85446985    0.27843973    0.42326017    -0.16700000
opls_145-23    C    0.72243004    0.57091001    0.42275984    -0.17010000
opls_523-24    C    0.49789989    0.18563972    0.42301001    -0.12150000
opls_523-25    C    0.81594998    0.30890970    0.42274036    -0.11800000
opls_523-26    C    0.69186015    0.50214008    0.42241037    -0.12110000
opls_700-27    C    0.52960986    0.25530997    0.42902021    0.00060000
opls_700-28    C    0.74594999    0.27085007    0.42895987    -0.00080000
opls_700-29    C    0.73015013    0.47054013    0.42860034    0.00030000
opls_523-30    C    0.49015000    0.28564000    0.43470986    -0.12310000
opls_523-31    C    0.71552995    0.20130005    0.43481986    -0.12150000
opls_523-32    C    0.80002994    0.50974981    0.43424976    -0.12290000
opls_145-33    C    0.42101004    0.24748013    0.43637992    -0.17420000
opls_145-34    C    0.75392002    0.17065004    0.43646038    -0.17420000
opls_145-35    C    0.83077976    0.57856982    0.43571994    -0.17730000
opls_531-36    C    0.60306983    0.29599013    0.42861983    0.37020000
opls_531-37    C    0.70502998    0.30328976    0.42859029    0.37020000
opls_531-38    C    0.69760010    0.39741990    0.42843000    0.37020000
opls_142-39    C    0.28336971    0.15105993    0.47960037    0.07110000
opls_142-40    C    0.85087983    0.13005010    0.47954003    0.07190000
opls_142-41    C    0.87145977    0.71557979    0.47848029    0.07060000
opls_750-42    N    0.32012012    0.13644000    0.43359984    -0.25380000
opls_750-43    N    0.86552994    0.18120992    0.43342007    -0.27120000
opls_750-44    N    0.82005982    0.67902975    0.43254010    -0.24190000
opls_520-45    N    0.73710980    0.37014994    0.42849035    -0.39840000
opls_520-46    N    0.63041983    0.36251980    0.42851989    -0.40510000
opls_520-47    N    0.63817992    0.26401994    0.42869022    -0.40950000
opls_239-48    N    0.99999985    0.99999999    0.47800008    -0.02910000
opls_146-49    H    0.07485980    0.11102984    0.56533037    0.10750000
opls_146-50    H    0.89128001    0.96115990    0.56367036    0.07760000
opls_146-51    H    0.03670002    0.92393993    0.56388030    0.24870000
opls_146-52    H    0.19873007    0.17629006    0.56616005    0.04730000
opls_146-53    H    0.82561990    0.02064978    0.56633039    0.10940000
opls_146-54    H    0.98135970    0.79976976    0.56490987    0.10800000
opls_146-55    H    0.20631997    0.03826998    0.39233985    0.11170000
opls_146-56    H    0.96422973    0.16609975    0.39198031    0.10710000
opls_146-57    H    0.83516006    0.79232997    0.39088035    0.10800000
opls_146-58    H    0.08172995    0.97020984    0.39053025    0.04520000
opls_146-59    H    0.02835001    0.10957981    0.39208025    0.24880000
opls_146-60    H    0.89276980    0.91631995    0.39049002    0.10800000
opls_146-61    H    0.40377998    0.09335969    0.41822987    0.11170000
opls_146-62    H    0.90871968    0.30747968    0.41776035    0.10750000
opls_146-63    H    0.69320981    0.59585006    0.41729019    0.10730000
opls_526-64    H    0.52873975    0.16250997    0.41744984    0.10790000
opls_526-65    H    0.83916004    0.36271011    0.41704003    0.10780000
opls_526-66    H    0.63780009    0.47148010    0.41688037    0.10670000
opls_526-67    H    0.51490996    0.33971007    0.43770994    0.10740000
opls_526-68    H    0.66120966    0.17190973    0.43798021    0.10740000
opls_526-69    H    0.82958980    0.48508012    0.43739000    0.10690000
opls_146-70    H    0.39082983    0.27156973    0.43901984    0.10920000
opls_146-71    H    0.72975012    0.11654013    0.43923983    0.10900000
opls_146-72    H    0.88513984    0.60856990    0.43833032    0.10900000
opls_144-73    H    0.89262007    0.69366991    0.52206027    0.05600000
opls_144-74    H    0.30535988    0.19399992    0.52305023    0.03750000
opls_144-75    H    0.80772970    0.10902987    0.52312000    0.05600000
