#======================================================================
# Crystal Data Generated By AuToFF
#----------------------------------------------------------------------

data_AuToFF_phase_1

_cell_length_a                         51.4668
_cell_length_b                         51.4668
_cell_length_c                         3.8661
_cell_angle_alpha                      90.00
_cell_angle_beta                       90.00
_cell_angle_gamma                      120.00
_symmetry_space_group_name_H-M_alt     'P 1'
_symmetry_space_group_IT_number        1

loop_
_space_group_symop_operation_xyz
   'x, y, z'

loop_
   _atom_site_label
   _atom_site_type_symbol
   _atom_site_fract_x
   _atom_site_fract_y
   _atom_site_fract_z
   _atom_site_charge
opls_700-0    C    0.62534988    0.27085994    0.25896899    0.00350000
opls_523-1    C    0.59557991    0.26025991    0.35740928    -0.13360000
opls_145-2    C    0.57568993    0.22958990    0.38995887    -0.18410000
opls_145-3    C    0.58525006    0.20890003    0.32425959    0.19290000
opls_145-4    C    0.61457992    0.21941996    0.21474871    -0.18020000
opls_523-5    C    0.63456005    0.25008997    0.18471069    -0.13340000
opls_142-6    C    0.54138006    0.16409993    0.53455938    0.10500000
opls_700-7    C    0.52355000    0.13118993    0.55439073    0.06880000
opls_523-8    C    0.49760998    0.11773001    0.75047981    -0.17270000
opls_522-9    C    0.48100993    0.08662990    0.78213962    -0.17500000
opls_521-10    C    0.48912003    0.06809993    0.60789943    0.16490000
opls_522-11    C    0.51433992    0.08181002    0.39888001    -0.20060000
opls_523-12    C    0.53193991    0.11291999    0.38029021    -0.17230000
opls_521-13    C    0.43908005    0.02024004    0.59219886    0.13100000
opls_700-14    C    0.42145998    0.98926984    0.65868964    -0.05950000
opls_280-15    C    0.43608982    0.97215983    0.75090918    0.29750000
opls_700-16    C    0.46882992    0.98660985    0.73350922    -0.06650000
opls_521-17    C    0.48605989    0.01789998    0.70354104    0.09960000
opls_522-18    C    0.48269005    0.96911999    0.73930059    -0.19610000
opls_522-19    C    0.42427002    0.03520990    0.47149065    -0.19930000
opls_523-20    C    0.39327001    0.02026000    0.43208919    -0.10150000
opls_145-21    C    0.37622003    0.99004993    0.50975919    -0.10100000
opls_523-22    C    0.39017994    0.97453982    0.62147125    -0.13130000
opls_531-23    C    0.69662996    0.34346004    0.24310028    0.34380000
opls_700-24    C    0.72913998    0.35448995    0.25896899    0.00350000
opls_523-25    C    0.73974000    0.33531988    0.35740928    -0.13360000
opls_145-26    C    0.77041008    0.34610007    0.38995887    -0.18410000
opls_145-27    C    0.79110003    0.37635008    0.32425959    0.19290000
opls_145-28    C    0.78057994    0.39516005    0.21474871    -0.18020000
opls_523-29    C    0.74991007    0.38447005    0.18471069    -0.13340000
opls_142-30    C    0.83590000    0.37728004    0.53455938    0.10490000
opls_700-31    C    0.86880996    0.39236006    0.55439073    0.06880000
opls_523-32    C    0.88226996    0.37987991    0.75047981    -0.17270000
opls_522-33    C    0.91336992    0.39437996    0.78213962    -0.17500000
opls_521-34    C    0.93189993    0.42102004    0.60789943    0.16490000
opls_522-35    C    0.91818997    0.43253007    0.39888001    -0.20060000
opls_523-36    C    0.88707995    0.41901989    0.38029021    -0.17230000
opls_521-37    C    0.97975988    0.41883995    0.59219886    0.13100000
opls_700-38    C    0.01072996    0.43218994    0.65868964    -0.05950000
opls_280-39    C    0.02783997    0.46392991    0.75090918    0.29750000
opls_700-40    C    0.01339002    0.48222005    0.73350922    -0.06650000
opls_521-41    C    0.98210007    0.46815997    0.70354104    0.09960000
opls_522-42    C    0.03087988    0.51356986    0.73930059    -0.19610000
opls_522-43    C    0.96479004    0.38905997    0.47149065    -0.19940000
opls_523-44    C    0.97974008    0.37301005    0.43208919    -0.10150000
opls_145-45    C    0.00995005    0.38617002    0.50975919    -0.10100000
opls_523-46    C    0.02545988    0.41563993    0.62147125    -0.13130000
opls_531-47    C    0.65654006    0.35317005    0.24310028    0.34370000
opls_700-48    C    0.64551003    0.37464989    0.25896899    0.00350000
opls_523-49    C    0.66467998    0.40441999    0.35740928    -0.13360000
opls_145-50    C    0.65389999    0.42431003    0.38995887    -0.18410000
opls_145-51    C    0.62364991    0.41474990    0.32425959    0.19290000
opls_145-52    C    0.60483995    0.38541999    0.21474871    -0.18020000
opls_523-53    C    0.61553007    0.36543998    0.18471069    -0.13340000
opls_142-54    C    0.62271994    0.45862003    0.53455938    0.10490000
opls_700-55    C    0.60764004    0.47645001    0.55439073    0.06880000
opls_523-56    C    0.62011995    0.50238986    0.75047981    -0.17270000
opls_522-57    C    0.60562003    0.51898991    0.78213962    -0.17500000
opls_521-58    C    0.57898005    0.51088003    0.60789943    0.16490000
opls_522-59    C    0.56746992    0.48565991    0.39888001    -0.20060000
opls_523-60    C    0.58098002    0.46805990    0.38029021    -0.17230000
opls_521-61    C    0.58116007    0.56092001    0.59219886    0.13100000
opls_700-62    C    0.56780995    0.57853999    0.65868964    -0.05950000
opls_280-63    C    0.53607010    0.56391004    0.75090918    0.29750000
opls_700-64    C    0.51777995    0.53116988    0.73350922    -0.06650000
opls_521-65    C    0.53184004    0.51394006    0.70354104    0.09960000
opls_522-66    C    0.48642995    0.51730992    0.73930059    -0.19610000
opls_522-67    C    0.61094002    0.57572990    0.47149065    -0.19940000
opls_523-68    C    0.62698991    0.60672994    0.43208919    -0.10150000
opls_145-69    C    0.61383011    0.62378005    0.50975919    -0.10100000
opls_523-70    C    0.58436007    0.60982003    0.62147125    -0.13130000
opls_531-71    C    0.64682998    0.30336991    0.24310028    0.34370000
opls_700-72    C    0.37465001    0.72913984    0.25896899    0.00350000
opls_523-73    C    0.40441998    0.73973987    0.35740928    -0.13360000
opls_145-74    C    0.42430995    0.77040988    0.38995887    -0.18410000
opls_145-75    C    0.41474994    0.79109997    0.32425959    0.19290000
opls_145-76    C    0.38542008    0.78058004    0.21474871    -0.18020000
opls_523-77    C    0.36543995    0.74991003    0.18471069    -0.13340000
opls_142-78    C    0.45861983    0.83589984    0.53455938    0.10490000
opls_700-79    C    0.47644989    0.86880984    0.55439073    0.06880000
opls_523-80    C    0.50239002    0.88226999    0.75047981    -0.17270000
opls_522-81    C    0.51898996    0.91336987    0.78213962    -0.17500000
opls_521-82    C    0.51087986    0.93189985    0.60789943    0.16490000
opls_522-83    C    0.48566008    0.91818998    0.39888001    -0.20060000
opls_523-84    C    0.46806009    0.88708001    0.38029021    -0.17230000
opls_521-85    C    0.56091995    0.97975996    0.59219886    0.13100000
opls_700-86    C    0.57853991    0.01072994    0.65868964    -0.05950000
opls_280-87    C    0.56391007    0.02783995    0.75090918    0.29750000
opls_700-88    C    0.53116997    0.01338993    0.73350922    -0.06650000
opls_521-89    C    0.51394011    0.98210002    0.70354104    0.09960000
opls_522-90    C    0.51730995    0.03088001    0.73930059    -0.19610000
opls_522-91    C    0.57572987    0.96478988    0.47149065    -0.19940000
opls_523-92    C    0.60672999    0.97974000    0.43208919    -0.10150000
opls_145-93    C    0.62377997    0.00995007    0.50975919    -0.10100000
opls_523-94    C    0.60981995    0.02545996    0.62147125    -0.13130000
opls_531-95    C    0.30337004    0.65653996    0.24310028    0.34370000
opls_700-96    C    0.27086002    0.64551005    0.25896899    0.00350000
opls_523-97    C    0.26025989    0.66467990    0.35740928    -0.13360000
opls_145-98    C    0.22958992    0.65389993    0.38995887    -0.18410000
opls_145-99    C    0.20889997    0.62364992    0.32425959    0.19290000
opls_145-100    C    0.21942006    0.60483995    0.21474871    -0.18020000
opls_523-101    C    0.25008993    0.61552995    0.18471069    -0.13340000
opls_142-102    C    0.16410000    0.62271996    0.53455938    0.10490000
opls_700-103    C    0.13119004    0.60763994    0.55439073    0.06880000
opls_523-104    C    0.11772993    0.62011987    0.75047981    -0.17270000
opls_522-105    C    0.08663008    0.60562004    0.78213962    -0.17490000
opls_521-106    C    0.06810007    0.57897996    0.60789943    0.16490000
opls_522-107    C    0.08181003    0.56746993    0.39888001    -0.20060000
opls_523-108    C    0.11291994    0.58097989    0.38029021    -0.17230000
opls_521-109    C    0.02024012    0.58116005    0.59219886    0.13100000
opls_700-110    C    0.98927004    0.56781006    0.65868964    -0.05950000
opls_280-111    C    0.97215992    0.53606986    0.75090918    0.29750000
opls_700-112    C    0.98660998    0.51777995    0.73350922    -0.06650000
opls_521-113    C    0.01789993    0.53184003    0.70354104    0.09960000
opls_522-114    C    0.96912001    0.48642991    0.73930059    -0.19610000
opls_522-115    C    0.03520996    0.61094003    0.47149065    -0.19930000
opls_523-116    C    0.02025992    0.62698995    0.43208919    -0.10150000
opls_145-117    C    0.99004995    0.61382998    0.50975919    -0.10100000
opls_523-118    C    0.97454001    0.58435985    0.62147125    -0.13130000
opls_531-119    C    0.34345994    0.64682995    0.24310028    0.34380000
opls_700-120    C    0.35448986    0.62534989    0.25896899    0.00350000
opls_523-121    C    0.33532002    0.59558001    0.35740928    -0.13360000
opls_145-122    C    0.34610001    0.57568997    0.38995887    -0.18410000
opls_145-123    C    0.37634998    0.58524988    0.32425959    0.19290000
opls_145-124    C    0.39516005    0.61458001    0.21474871    -0.18020000
opls_523-125    C    0.38446993    0.63456002    0.18471069    -0.13340000
opls_142-126    C    0.37728006    0.54137997    0.53455938    0.10490000
opls_700-127    C    0.39235996    0.52354999    0.55439073    0.06880000
opls_523-128    C    0.37987994    0.49760991    0.75047981    -0.17270000
opls_522-129    C    0.39437986    0.48100986    0.78213962    -0.17500000
opls_521-130    C    0.42101995    0.48911997    0.60789943    0.16490000
opls_522-131    C    0.43252997    0.51433986    0.39888001    -0.20060000
opls_523-132    C    0.41901986    0.53193987    0.38029021    -0.17230000
opls_521-133    C    0.41883993    0.43907999    0.59219886    0.13100000
opls_700-134    C    0.43219005    0.42146001    0.65868964    -0.05950000
opls_280-135    C    0.46392990    0.43608996    0.75090918    0.29750000
opls_700-136    C    0.48221994    0.46882990    0.73350922    -0.06650000
opls_521-137    C    0.46815996    0.48605994    0.70354104    0.09960000
opls_522-138    C    0.51356994    0.48268986    0.73930059    -0.19610000
opls_522-139    C    0.38905987    0.42426987    0.47149065    -0.19940000
opls_523-140    C    0.37301009    0.39327006    0.43208919    -0.10150000
opls_145-141    C    0.38616989    0.37621995    0.50975919    -0.10100000
opls_523-142    C    0.41563993    0.39017997    0.62147125    -0.13130000
opls_531-143    C    0.35316991    0.69662987    0.24310028    0.34370000
opls_750-144    N    0.56594998    0.17718002    0.36128915    -0.30170000
opls_239-145    N    0.47155995    0.03567006    0.63970927    -0.15770000
opls_520-146    N    0.67672999    0.31363004    0.24365898    -0.44050000
opls_750-147    N    0.82281997    0.38876988    0.36128915    -0.30180000
opls_239-148    N    0.96433008    0.43589006    0.63970927    -0.15770000
opls_520-149    N    0.68636996    0.36309992    0.24365898    -0.44060000
opls_750-150    N    0.61122994    0.43404987    0.36128915    -0.30180000
opls_239-151    N    0.56410997    0.52843988    0.63970927    -0.15770000
opls_520-152    N    0.63690005    0.32327004    0.24365898    -0.44070000
opls_750-153    N    0.43405002    0.82281998    0.36128915    -0.30180000
opls_239-154    N    0.52844005    0.96432994    0.63970927    -0.15760000
opls_520-155    N    0.32327001    0.68636996    0.24365898    -0.44070000
opls_750-156    N    0.17717992    0.61122990    0.36128915    -0.30180000
opls_239-157    N    0.03566992    0.56410994    0.63970927    -0.15770000
opls_520-158    N    0.31362993    0.63689985    0.24365898    -0.44070000
opls_750-159    N    0.38876995    0.56594990    0.36128915    -0.30180000
opls_239-160    N    0.43588992    0.47155989    0.63970927    -0.15760000
opls_520-161    N    0.36309995    0.67672996    0.24365898    -0.44070000
opls_281-162    O    0.42114988    0.94602993    0.83625876    -0.31110000
opls_281-163    O    0.05397000    0.47512001    0.83625876    -0.31110000
opls_281-164    O    0.52488012    0.57885006    0.83625876    -0.31110000
opls_281-165    O    0.57885012    0.05397007    0.83625876    -0.31110000
opls_281-166    O    0.94603000    0.52487999    0.83625876    -0.31110000
opls_281-167    O    0.47511988    0.42114994    0.83625876    -0.31110000
opls_526-168    H    0.58773996    0.27568005    0.41495047    0.10290000
opls_146-169    H    0.55295001    0.22235995    0.46410077    0.09420000
opls_146-170    H    0.62212994    0.20375998    0.15796022    0.09800000
opls_526-171    H    0.65724001    0.25752991    0.10408939    0.12580000
opls_144-172    H    0.53404011    0.17707009    0.67702077    0.10120000
opls_526-173    H    0.49060011    0.13130009    0.88689118    0.09400000
opls_525-174    H    0.46163989    0.07696993    0.94155092    0.24310000
opls_525-175    H    0.52065988    0.06837993    0.25253097    0.23550000
opls_526-176    H    0.55160004    0.12257996    0.22235069    0.24270000
opls_525-177    H    0.46850007    0.94530997    0.76248933    0.09400000
opls_525-178    H    0.43617004    0.05850008    0.40557927    0.24270000
opls_526-179    H    0.38244991    0.03221000    0.34039989    0.11520000
opls_617-180    H    0.35217995    0.97850984    0.47900985    0.10990000
opls_526-181    H    0.37651998    0.95085992    0.67322884    0.11230000
opls_526-182    H    0.72432003    0.31205998    0.41495047    0.10290000
opls_146-183    H    0.77764002    0.33058995    0.46410077    0.09420000
opls_146-184    H    0.79623992    0.41836992    0.15796022    0.09800000
opls_526-185    H    0.74247006    0.39971004    0.10408939    0.12570000
opls_144-186    H    0.82292997    0.35697001    0.67702077    0.10120000
opls_526-187    H    0.86870001    0.35929997    0.88689118    0.09400000
opls_525-188    H    0.92302991    0.38466996    0.94155092    0.24310000
opls_525-189    H    0.93161998    0.45227988    0.25253097    0.23550000
opls_526-190    H    0.87742006    0.42901998    0.22235069    0.24270000
opls_525-191    H    0.05468992    0.52318990    0.76248933    0.09400000
opls_525-192    H    0.94150001    0.37766998    0.40557927    0.24280000
opls_526-193    H    0.96779000    0.35023993    0.34039989    0.11520000
opls_617-194    H    0.02148991    0.37366989    0.47900985    0.10990000
opls_526-195    H    0.04914001    0.42565999    0.67322884    0.11230000
opls_526-196    H    0.68794001    0.41225997    0.41495047    0.10290000
opls_146-197    H    0.66940985    0.44704987    0.46410077    0.09420000
opls_146-198    H    0.58163004    0.37786988    0.15796022    0.09800000
opls_526-199    H    0.60029012    0.34276005    0.10408939    0.12570000
opls_144-200    H    0.64302993    0.46595991    0.67702077    0.10120000
opls_526-201    H    0.64069988    0.50939994    0.88689118    0.09400000
opls_525-202    H    0.61532989    0.53835989    0.94155092    0.24310000
opls_525-203    H    0.54772003    0.47933996    0.25253097    0.23550000
opls_526-204    H    0.57098009    0.44840006    0.22235069    0.24280000
opls_525-205    H    0.47680990    0.53149991    0.76248933    0.09400000
opls_525-206    H    0.62232996    0.56382994    0.40557927    0.24270000
opls_526-207    H    0.64975999    0.61754985    0.34039989    0.11520000
opls_617-208    H    0.62633003    0.64782004    0.47900985    0.10990000
opls_526-209    H    0.57433990    0.62347986    0.67322884    0.11230000
opls_526-210    H    0.41226004    0.72431995    0.41495047    0.10290000
opls_146-211    H    0.44704999    0.77764005    0.46410077    0.09420000
opls_146-212    H    0.37787006    0.79624002    0.15796022    0.09800000
opls_526-213    H    0.34275988    0.74246986    0.10408939    0.12570000
opls_144-214    H    0.46595989    0.82292991    0.67702077    0.10120000
opls_526-215    H    0.50939989    0.86869991    0.88689118    0.09400000
opls_525-216    H    0.53835999    0.92302984    0.94155092    0.24310000
opls_525-217    H    0.47934001    0.93161985    0.25253097    0.23550000
opls_526-218    H    0.44839984    0.87741982    0.22235069    0.24270000
opls_525-219    H    0.53149993    0.05469003    0.76248933    0.09400000
opls_525-220    H    0.56382996    0.94149992    0.40557927    0.24280000
opls_526-221    H    0.61755009    0.96779000    0.34039989    0.11520000
opls_617-222    H    0.64781994    0.02148994    0.47900985    0.10990000
opls_526-223    H    0.62348002    0.04914008    0.67322884    0.11230000
opls_526-224    H    0.27567997    0.68794002    0.41495047    0.10290000
opls_146-225    H    0.22235998    0.66941005    0.46410077    0.09420000
opls_146-226    H    0.20375997    0.58162986    0.15796022    0.09800000
opls_526-227    H    0.25752994    0.60028996    0.10408939    0.12570000
opls_144-228    H    0.17707003    0.64302999    0.67702077    0.10120000
opls_526-229    H    0.13129999    0.64070003    0.88689118    0.09400000
opls_525-230    H    0.07697009    0.61533004    0.94155092    0.24310000
opls_525-231    H    0.06837991    0.54771989    0.25253097    0.23560000
opls_526-232    H    0.12257994    0.57098002    0.22235069    0.24270000
opls_525-233    H    0.94530997    0.47680988    0.76248933    0.09400000
opls_525-234    H    0.05849999    0.62233002    0.40557927    0.24270000
opls_526-235    H    0.03220989    0.64975985    0.34039989    0.11520000
opls_617-236    H    0.97850998    0.62632988    0.47900985    0.10990000
opls_526-237    H    0.95085999    0.57434001    0.67322884    0.11230000
opls_526-238    H    0.31205999    0.58774003    0.41495047    0.10290000
opls_146-239    H    0.33059003    0.55294991    0.46410077    0.09420000
opls_146-240    H    0.41836985    0.62212990    0.15796022    0.09800000
opls_526-241    H    0.39970988    0.65723995    0.10408939    0.12570000
opls_144-242    H    0.35696996    0.53403987    0.67702077    0.10130000
opls_526-243    H    0.35930012    0.49060006    0.88689118    0.09400000
opls_525-244    H    0.38467000    0.46163989    0.94155092    0.24310000
opls_525-245    H    0.45227997    0.52066004    0.25253097    0.23550000
opls_526-246    H    0.42901991    0.55159994    0.22235069    0.24270000
opls_525-247    H    0.52318999    0.46849987    0.76248933    0.09400000
opls_525-248    H    0.37767004    0.43617006    0.40557927    0.24270000
opls_526-249    H    0.35023990    0.38244993    0.34039989    0.11520000
opls_617-250    H    0.37366997    0.35217996    0.47900985    0.10990000
opls_526-251    H    0.42565999    0.37651992    0.67322884    0.11230000
