#======================================================================
# Crystal Data Generated By AuToFF
#----------------------------------------------------------------------

data_AuToFF_phase_1

_cell_length_a                         25.8033
_cell_length_b                         6.7438
_cell_length_c                         25.8823
_cell_angle_alpha                      90.00
_cell_angle_beta                       100.41
_cell_angle_gamma                      90.00
_symmetry_space_group_name_H-M_alt     'P 1'
_symmetry_space_group_IT_number        1

loop_
_space_group_symop_operation_xyz
   'x, y, z'

loop_
   _atom_site_label
   _atom_site_type_symbol
   _atom_site_fract_x
   _atom_site_fract_y
   _atom_site_fract_z
   _atom_site_charge
opls_145-0    C    0.53228976    0.50000000    0.54961998    -0.12780000
opls_145-1    C    0.04639987    0.50000000    0.03653008    -0.23540000
opls_145-2    C    0.46770986    0.50000000    0.45038002    -0.12780000
opls_145-3    C    0.95359974    0.50000000    0.96346992    -0.23540000
opls_145-4    C    0.52255005    0.50000000    0.45478012    -0.13290000
opls_166-5    C    0.95076010    0.50000000    0.01674007    0.34530000
opls_145-6    C    0.47744995    0.50000000    0.54521988    -0.13290000
opls_166-7    C    0.04923990    0.50000000    0.98325993    0.34530000
opls_142-8    C    0.38673001    0.50000000    0.49001975    0.06860000
opls_142-9    C    0.99749978    0.50000000    0.88698977    0.07210000
opls_142-10    C    0.61326992    0.50000000    0.50997986    0.06860000
opls_142-11    C    0.00250014    0.50000000    0.11300983    0.07210000
opls_700-12    C    0.55529990    0.50000000    0.50447002    0.06880000
opls_700-13    C    0.99825984    0.50000000    0.05477980    -0.03550000
opls_700-14    C    0.44470010    0.50000000    0.49552998    0.06880000
opls_700-15    C    0.00173970    0.50000000    0.94521980    -0.03550000
opls_507-16    C    0.04125009    0.50000000    0.38937975    0.17940000
opls_507-17    C    0.89024995    0.50000000    0.54341993    0.17940000
opls_507-18    C    0.95874984    0.50000000    0.61061985    0.17940000
opls_507-19    C    0.10975005    0.50000000    0.45658007    0.17940000
opls_716-20    C    0.08709996    0.50000000    0.36822976    -0.17050000
opls_716-21    C    0.87001990    0.50000000    0.58970007    -0.17050000
opls_716-22    C    0.91289997    0.50000000    0.63176984    -0.17050000
opls_716-23    C    0.12998010    0.50000000    0.41029993    -0.17050000
opls_543-24    C    0.93735985    0.50000000    0.37983005    0.20420000
opls_543-25    C    0.87867999    0.50000000    0.43968993    0.20460000
opls_543-26    C    0.06263976    0.50000000    0.62016995    0.20420000
opls_543-27    C    0.12132001    0.50000000    0.56031007    0.20460000
opls_716-28    C    0.88250010    0.50000000    0.35103990    -0.20110000
opls_716-29    C    0.84885005    0.50000000    0.38537995    -0.20110000
opls_716-30    C    0.11749983    0.50000000    0.64895971    -0.20110000
opls_716-31    C    0.15114995    0.50000000    0.61462005    -0.20110000
opls_700-32    C    0.98374003    0.50000000    0.35952975    -0.13640000
opls_700-33    C    0.85928993    0.50000000    0.48647996    -0.13640000
opls_700-34    C    0.01625990    0.50000000    0.64046986    -0.13640000
opls_700-35    C    0.14071007    0.50000000    0.51352004    -0.13640000
opls_700-36    C    0.97791993    0.50000000    0.30183986    0.06750000
opls_700-37    C    0.80152982    0.50000000    0.48177974    0.06770000
opls_700-38    C    0.02207999    0.50000000    0.69815975    0.06750000
opls_700-39    C    0.19846972    0.50000000    0.51821987    0.06770000
opls_145-40    C    0.97528000    0.32018002    0.27430991    -0.12520000
opls_145-41    C    0.77396989    0.67981998    0.47966985    -0.12520000
opls_145-42    C    0.02471993    0.32018002    0.72568969    -0.12520000
opls_145-43    C    0.22603004    0.67981998    0.52032976    -0.12520000
opls_145-44    C    0.02471993    0.67981998    0.72568969    -0.12520000
opls_145-45    C    0.22603004    0.32018002    0.52032976    -0.12510000
opls_145-46    C    0.97528000    0.67981998    0.27430991    -0.12520000
opls_145-47    C    0.77396989    0.32018002    0.47966985    -0.12520000
opls_145-48    C    0.96998989    0.32051959    0.21953993    -0.17440000
opls_145-49    C    0.71912009    0.67948931    0.47538996    -0.17180000
opls_145-50    C    0.03000972    0.32051959    0.78046007    -0.17430000
opls_145-51    C    0.28087991    0.67948931    0.52461004    -0.17170000
opls_145-52    C    0.03000972    0.67948041    0.78046007    -0.17440000
opls_145-53    C    0.28087991    0.32051069    0.52461004    -0.17180000
opls_145-54    C    0.96998989    0.67948041    0.21953993    -0.17440000
opls_145-55    C    0.71912009    0.32051069    0.47538996    -0.17180000
opls_145-56    C    0.96758992    0.50000000    0.19216005    0.19140000
opls_145-57    C    0.69169996    0.50000000    0.47346981    0.19220000
opls_145-58    C    0.03240969    0.50000000    0.80783995    0.19140000
opls_145-59    C    0.30831005    0.50000000    0.52652980    0.19220000
opls_750-60    N    0.63573989    0.50000000    0.46896994    -0.30460000
opls_750-61    N    0.96210985    0.50000000    0.13627993    -0.30440000
opls_750-62    N    0.36426011    0.50000000    0.53103006    -0.30460000
opls_750-63    N    0.03788970    0.50000000    0.86371968    -0.30460000
opls_542-64    N    0.05728012    0.50000000    0.44157002    -0.27050000
opls_542-65    N    0.94271988    0.50000000    0.55842998    -0.27560000
opls_542-66    N    0.93200005    0.50000000    0.43328012    -0.30910000
opls_542-67    N    0.06799995    0.50000000    0.56671988    -0.30900000
opls_547-68    H    0.08943995    0.50000000    0.32693976    0.11890000
opls_547-69    H    0.82879998    0.50000000    0.59284978    0.11780000
opls_547-70    H    0.91055998    0.50000000    0.67305985    0.11890000
opls_547-71    H    0.17119994    0.50000000    0.40714983    0.11780000
opls_547-72    H    0.87055999    0.50000000    0.30876978    0.11830000
opls_547-73    H    0.80637006    0.50000000    0.37426010    0.11490000
opls_547-74    H    0.12943994    0.50000000    0.69122983    0.11830000
opls_547-75    H    0.19362994    0.50000000    0.62573990    0.11490000
opls_146-76    H    0.97723004    0.18085946    0.29534991    0.11590000
opls_146-77    H    0.79503979    0.81911978    0.48123999    0.11550000
opls_146-78    H    0.02276989    0.18085946    0.70464970    0.11580000
opls_146-79    H    0.20496990    0.81911978    0.51876001    0.11500000
opls_146-80    H    0.02276989    0.81914054    0.70464970    0.11580000
opls_146-81    H    0.20496990    0.18088022    0.51876001    0.11500000
opls_146-82    H    0.97723004    0.81914054    0.29534991    0.11580000
opls_146-83    H    0.79503979    0.18088022    0.48123999    0.11550000
opls_146-84    H    0.96773005    0.18233044    0.19808000    0.11840000
opls_146-85    H    0.69766992    0.81774964    0.47354995    0.11890000
opls_146-86    H    0.03226995    0.18233044    0.80192000    0.11840000
opls_146-87    H    0.30233008    0.81774964    0.52645005    0.11890000
opls_146-88    H    0.03226995    0.81766956    0.80192000    0.11840000
opls_146-89    H    0.30233008    0.18225036    0.52645005    0.11890000
opls_146-90    H    0.96773005    0.81766956    0.19808000    0.11840000
opls_146-91    H    0.69766992    0.18225036    0.47354995    0.11890000
opls_146-92    H    0.55675981    0.50000000    0.58832005    0.11330000
opls_146-93    H    0.53947995    0.50000000    0.41939985    0.11280000
opls_144-94    H    0.36282994    0.50000000    0.45092999    0.10480000
opls_146-95    H    0.08343010    0.50000000    0.06399010    0.11400000
opls_144-96    H    0.95832974    0.50000000    0.86297998    0.10470000
opls_168-97    H    0.89637989    0.50000000    0.06581991    0.29960000
opls_545-98    H    0.96139993    0.50000000    0.46211976    0.28900000
opls_146-99    H    0.44323980    0.50000000    0.41167995    0.11330000
opls_146-100    H    0.46051998    0.50000000    0.58059976    0.11290000
opls_144-101    H    0.63717006    0.50000000    0.54907001    0.10480000
opls_146-102    H    0.91656990    0.50000000    0.93600990    0.11400000
opls_144-103    H    0.04166987    0.50000000    0.13702002    0.10470000
opls_168-104    H    0.10361965    0.50000000    0.93417970    0.29960000
opls_545-105    H    0.03861007    0.50000000    0.53787985    0.28900000
opls_167-106    O    0.89968988    0.50000000    0.02774993    -0.45420000
opls_167-107    O    0.10030966    0.50000000    0.97224968    -0.45430000
