#======================================================================
# Crystal Data Generated By AuToFF
#----------------------------------------------------------------------

data_AuToFF_phase_1

_cell_length_a                         39.9494
_cell_length_b                         40.8391
_cell_length_c                         3.8138
_cell_angle_alpha                      90.00
_cell_angle_beta                       90.00
_cell_angle_gamma                      90.00
_symmetry_space_group_name_H-M_alt     'P 1'
_symmetry_space_group_IT_number        1

loop_
_space_group_symop_operation_xyz
   'x, y, z'

loop_
   _atom_site_label
   _atom_site_type_symbol
   _atom_site_fract_x
   _atom_site_fract_y
   _atom_site_fract_z
   _atom_site_charge
opls_700-0    C    0.53075991    0.42806991    0.95738109    0.02450000
opls_700-1    C    0.53067005    0.46499996    0.98271016    0.03580000
opls_145-2    C    0.06043996    0.98308998    0.00351880    -0.13760000
opls_700-3    C    0.56014008    0.59113007    0.11016047    0.07150000
opls_145-4    C    0.56358994    0.62333989    0.97581939    -0.13370000
opls_145-5    C    0.58656000    0.57926007    0.31972049    -0.12260000
opls_145-6    C    0.59231002    0.64194999    0.03933872    -0.12970000
opls_145-7    C    0.61596995    0.59716007    0.36850123    -0.12200000
opls_700-8    C    0.61919003    0.62874010    0.22955058    0.06150000
opls_145-9    C    0.67929005    0.69735009    0.18290943    0.09300000
opls_145-10    C    0.21119992    0.18542010    0.27537102    -0.17450000
opls_166-11    C    0.67598011    0.73067991    0.09068121    0.21180000
opls_145-12    C    0.23901010    0.20607996    0.27493052    -0.13300000
opls_145-13    C    0.70385012    0.75137993    0.10097016    -0.27040000
opls_700-14    C    0.73587989    0.73950993    0.19002045    0.08760000
opls_142-15    C    0.64887007    0.64627991    0.28198909    0.07640000
opls_700-16    C    0.03075991    0.92806991    0.95738109    0.02450000
opls_700-17    C    0.03067005    0.96499996    0.98271016    0.03580000
opls_145-18    C    0.56043996    0.48308998    0.00351880    -0.13760000
opls_700-19    C    0.06014008    0.09113007    0.11016047    0.07150000
opls_145-20    C    0.06358994    0.12333989    0.97581939    -0.13370000
opls_145-21    C    0.08656000    0.07926007    0.31972049    -0.12250000
opls_145-22    C    0.09231002    0.14194999    0.03933872    -0.12970000
opls_145-23    C    0.11596995    0.09716007    0.36850123    -0.12210000
opls_700-24    C    0.11919003    0.12874010    0.22955058    0.06150000
opls_145-25    C    0.17929005    0.19735009    0.18290943    0.09300000
opls_145-26    C    0.71119992    0.68542010    0.27537102    -0.17440000
opls_166-27    C    0.17598011    0.23067991    0.09068121    0.21180000
opls_145-28    C    0.73901010    0.70607996    0.27493052    -0.13300000
opls_145-29    C    0.20385012    0.25137993    0.10097016    -0.27040000
opls_700-30    C    0.23587989    0.23950993    0.19002045    0.08760000
opls_142-31    C    0.14887007    0.14627991    0.28198909    0.07640000
opls_700-32    C    0.46924009    0.57193009    0.95738109    0.02450000
opls_700-33    C    0.46932995    0.53500004    0.98271016    0.03580000
opls_145-34    C    0.93956004    0.01691002    0.00351880    -0.13760000
opls_700-35    C    0.43985992    0.40886993    0.11016047    0.07160000
opls_145-36    C    0.43641006    0.37666011    0.97581939    -0.13370000
opls_145-37    C    0.41344000    0.42073993    0.31972049    -0.12260000
opls_145-38    C    0.40768998    0.35805001    0.03933872    -0.12970000
opls_145-39    C    0.38403005    0.40283993    0.36850123    -0.12210000
opls_700-40    C    0.38080997    0.37125990    0.22955058    0.06150000
opls_145-41    C    0.32070995    0.30264991    0.18290943    0.09300000
opls_145-42    C    0.78880008    0.81457990    0.27537102    -0.17440000
opls_166-43    C    0.32401989    0.26932009    0.09068121    0.21180000
opls_145-44    C    0.76098990    0.79392004    0.27493052    -0.13300000
opls_145-45    C    0.29614988    0.24862007    0.10097016    -0.27040000
opls_700-46    C    0.26412011    0.26049007    0.19002045    0.08760000
opls_142-47    C    0.35112993    0.35372009    0.28198909    0.07640000
opls_700-48    C    0.96924009    0.07193009    0.95738109    0.02450000
opls_700-49    C    0.96932995    0.03500004    0.98271016    0.03580000
opls_145-50    C    0.43956004    0.51691002    0.00351880    -0.13760000
opls_700-51    C    0.93985992    0.90886993    0.11016047    0.07150000
opls_145-52    C    0.93641006    0.87666011    0.97581939    -0.13370000
opls_145-53    C    0.91344000    0.92073993    0.31972049    -0.12260000
opls_145-54    C    0.90768998    0.85805001    0.03933872    -0.12970000
opls_145-55    C    0.88403005    0.90283993    0.36850123    -0.12210000
opls_700-56    C    0.88080997    0.87125990    0.22955058    0.06150000
opls_145-57    C    0.82070995    0.80264991    0.18290943    0.09300000
opls_145-58    C    0.28880008    0.31457990    0.27537102    -0.17450000
opls_166-59    C    0.82401989    0.76932009    0.09068121    0.21180000
opls_145-60    C    0.26098990    0.29392004    0.27493052    -0.13300000
opls_145-61    C    0.79614988    0.74862007    0.10097016    -0.27040000
opls_700-62    C    0.76412011    0.76049007    0.19002045    0.08760000
opls_142-63    C    0.85112993    0.85372009    0.28198909    0.07640000
opls_700-64    C    0.46924009    0.42806991    0.04261891    0.02450000
opls_700-65    C    0.46932995    0.46499996    0.01728984    0.03580000
opls_145-66    C    0.93956004    0.98308998    0.99648120    -0.13760000
opls_700-67    C    0.43985992    0.59113007    0.88983953    0.07150000
opls_145-68    C    0.43641006    0.62333989    0.02418061    -0.13370000
opls_145-69    C    0.41344000    0.57926007    0.68027951    -0.12260000
opls_145-70    C    0.40768998    0.64194999    0.96066128    -0.12970000
opls_145-71    C    0.38403005    0.59716007    0.63149877    -0.12210000
opls_700-72    C    0.38080997    0.62874010    0.77044942    0.06150000
opls_145-73    C    0.32070995    0.69735009    0.81709057    0.09300000
opls_145-74    C    0.78880008    0.18542010    0.72462898    -0.17450000
opls_166-75    C    0.32401989    0.73067991    0.90931879    0.21180000
opls_145-76    C    0.76098990    0.20607996    0.72506948    -0.13300000
opls_145-77    C    0.29614988    0.75137993    0.89902984    -0.27040000
opls_700-78    C    0.26412011    0.73950993    0.80997955    0.08760000
opls_142-79    C    0.35112993    0.64627991    0.71801091    0.07640000
opls_700-80    C    0.96924009    0.92806991    0.04261891    0.02450000
opls_700-81    C    0.96932995    0.96499996    0.01728984    0.03580000
opls_145-82    C    0.43956004    0.48308998    0.99648120    -0.13760000
opls_700-83    C    0.93985992    0.09113007    0.88983953    0.07150000
opls_145-84    C    0.93641006    0.12333989    0.02418061    -0.13370000
opls_145-85    C    0.91344000    0.07926007    0.68027951    -0.12260000
opls_145-86    C    0.90768998    0.14194999    0.96066128    -0.12970000
opls_145-87    C    0.88403005    0.09716007    0.63149877    -0.12210000
opls_700-88    C    0.88080997    0.12874010    0.77044942    0.06150000
opls_145-89    C    0.82070995    0.19735009    0.81709057    0.09300000
opls_145-90    C    0.28880008    0.68542010    0.72462898    -0.17450000
opls_166-91    C    0.82401989    0.23067991    0.90931879    0.21180000
opls_145-92    C    0.26098990    0.70607996    0.72506948    -0.13300000
opls_145-93    C    0.79614988    0.25137993    0.89902984    -0.27040000
opls_700-94    C    0.76412011    0.23950993    0.80997955    0.08760000
opls_142-95    C    0.85112993    0.14627991    0.71801091    0.07640000
opls_700-96    C    0.53075991    0.57193009    0.04261891    0.02450000
opls_700-97    C    0.53067005    0.53500004    0.01728984    0.03580000
opls_145-98    C    0.06043996    0.01691002    0.99648120    -0.13760000
opls_700-99    C    0.56014008    0.40886993    0.88983953    0.07150000
opls_145-100    C    0.56358994    0.37666011    0.02418061    -0.13370000
opls_145-101    C    0.58656000    0.42073993    0.68027951    -0.12260000
opls_145-102    C    0.59231002    0.35805001    0.96066128    -0.12970000
opls_145-103    C    0.61596995    0.40283993    0.63149877    -0.12210000
opls_700-104    C    0.61919003    0.37125990    0.77044942    0.06150000
opls_145-105    C    0.67929005    0.30264991    0.81709057    0.09300000
opls_145-106    C    0.21119992    0.81457990    0.72462898    -0.17450000
opls_166-107    C    0.67598011    0.26932009    0.90931879    0.21180000
opls_145-108    C    0.23901010    0.79392004    0.72506948    -0.13300000
opls_145-109    C    0.70385012    0.24862007    0.89902984    -0.27030000
opls_700-110    C    0.73587989    0.26049007    0.80997955    0.08760000
opls_142-111    C    0.64887007    0.35372009    0.71801091    0.07640000
opls_700-112    C    0.03075991    0.07193009    0.04261891    0.02450000
opls_700-113    C    0.03067005    0.03500004    0.01728984    0.03580000
opls_145-114    C    0.56043996    0.51691002    0.99648120    -0.13760000
opls_700-115    C    0.06014008    0.90886993    0.88983953    0.07150000
opls_145-116    C    0.06358994    0.87666011    0.02418061    -0.13370000
opls_145-117    C    0.08656000    0.92073993    0.68027951    -0.12260000
opls_145-118    C    0.09231002    0.85805001    0.96066128    -0.12970000
opls_145-119    C    0.11596995    0.90283993    0.63149877    -0.12210000
opls_700-120    C    0.11919003    0.87125990    0.77044942    0.06150000
opls_145-121    C    0.17929005    0.80264991    0.81709057    0.09300000
opls_145-122    C    0.71119992    0.31457990    0.72462898    -0.17450000
opls_166-123    C    0.17598011    0.76932009    0.90931879    0.21190000
opls_145-124    C    0.73901010    0.29392004    0.72506948    -0.13300000
opls_145-125    C    0.20385012    0.74862007    0.89902984    -0.27030000
opls_700-126    C    0.23587989    0.76049007    0.80997955    0.08760000
opls_142-127    C    0.14887007    0.85372009    0.71801091    0.07640000
opls_145-128    C    0.50000000    0.41187000    0.00000000    -0.18190000
opls_700-129    C    0.50000000    0.48239995    0.00000000    -0.00640000
opls_145-130    C    0.00000000    0.91187000    0.00000000    -0.18190000
opls_700-131    C    0.00000000    0.98239995    0.00000000    -0.00640000
opls_145-132    C    0.50000000    0.58813000    0.00000000    -0.18180000
opls_700-133    C    0.50000000    0.51760005    0.00000000    -0.00640000
opls_145-134    C    0.00000000    0.08813000    0.00000000    -0.18190000
opls_700-135    C    0.00000000    0.01760005    0.00000000    -0.00640000
opls_750-136    N    0.65173995    0.67775000    0.17170014    -0.31050000
opls_750-137    N    0.15173995    0.17775000    0.17170014    -0.31050000
opls_750-138    N    0.34826005    0.32225000    0.17170014    -0.31050000
opls_750-139    N    0.84826005    0.82225000    0.17170014    -0.31050000
opls_750-140    N    0.34826005    0.67775000    0.82829986    -0.31050000
opls_750-141    N    0.84826005    0.17775000    0.82829986    -0.31050000
opls_750-142    N    0.65173995    0.32225000    0.82829986    -0.31040000
opls_750-143    N    0.15173995    0.82225000    0.82829986    -0.31050000
opls_146-144    H    0.91538997    0.97169012    0.97214065    0.10350000
opls_146-145    H    0.54526000    0.63391994    0.80089937    0.11170000
opls_146-146    H    0.08435997    0.05644003    0.45836961    0.21850000
opls_146-147    H    0.59388001    0.66617996    0.92510095    0.11220000
opls_146-148    H    0.13579002    0.08662997    0.52650899    0.11050000
opls_146-149    H    0.26279994    0.19586009    0.35517070    0.11490000
opls_146-150    H    0.70037998    0.77658004    0.02061985    0.11090000
opls_146-151    H    0.21534992    0.16007992    0.34266873    0.11810000
opls_144-152    H    0.33089008    0.63445007    0.57881903    0.11550000
opls_168-153    H    0.37407996    0.72830988    0.02028948    0.28760000
opls_146-154    H    0.41538997    0.47169012    0.97214065    0.10340000
opls_146-155    H    0.04526000    0.13391994    0.80089937    0.11170000
opls_146-156    H    0.58435997    0.55644003    0.45836961    0.21840000
opls_146-157    H    0.09388001    0.16617996    0.92510095    0.11220000
opls_146-158    H    0.63579002    0.58662997    0.52650899    0.11060000
opls_146-159    H    0.76279994    0.69586009    0.35517070    0.11490000
opls_146-160    H    0.20037998    0.27658004    0.02061985    0.11080000
opls_146-161    H    0.71534992    0.66007992    0.34266873    0.11810000
opls_144-162    H    0.83089008    0.13445007    0.57881903    0.11550000
opls_168-163    H    0.87407996    0.22830988    0.02028948    0.28760000
opls_146-164    H    0.08461003    0.02830988    0.97214065    0.10340000
opls_146-165    H    0.45474000    0.36608006    0.80089937    0.11170000
opls_146-166    H    0.91564003    0.94355997    0.45836961    0.21840000
opls_146-167    H    0.40611999    0.33382004    0.92510095    0.11230000
opls_146-168    H    0.86420998    0.91337003    0.52650899    0.11050000
opls_146-169    H    0.73720006    0.80413991    0.35517070    0.11500000
opls_146-170    H    0.29962002    0.22341996    0.02061985    0.11080000
opls_146-171    H    0.78465008    0.83992008    0.34266873    0.11810000
opls_144-172    H    0.66910992    0.36554993    0.57881903    0.11550000
opls_168-173    H    0.62592004    0.27169012    0.02028948    0.28760000
opls_146-174    H    0.58461003    0.52830988    0.97214065    0.10340000
opls_146-175    H    0.95474000    0.86608006    0.80089937    0.11170000
opls_146-176    H    0.41564003    0.44355997    0.45836961    0.21840000
opls_146-177    H    0.90611999    0.83382004    0.92510095    0.11220000
opls_146-178    H    0.36420998    0.41337003    0.52650899    0.11050000
opls_146-179    H    0.23720006    0.30413991    0.35517070    0.11490000
opls_146-180    H    0.79962002    0.72341996    0.02061985    0.11080000
opls_146-181    H    0.28465008    0.33992008    0.34266873    0.11810000
opls_144-182    H    0.16910992    0.86554993    0.57881903    0.11550000
opls_168-183    H    0.12592004    0.77169012    0.02028948    0.28760000
opls_146-184    H    0.08461003    0.97169012    0.02785935    0.10340000
opls_146-185    H    0.45474000    0.63391994    0.19910063    0.11170000
opls_146-186    H    0.91564003    0.05644003    0.54163039    0.21850000
opls_146-187    H    0.40611999    0.66617996    0.07489905    0.11220000
opls_146-188    H    0.86420998    0.08662997    0.47349101    0.11050000
opls_146-189    H    0.73720006    0.19586009    0.64482930    0.11490000
opls_146-190    H    0.29962002    0.77658004    0.97938015    0.11080000
opls_146-191    H    0.78465008    0.16007992    0.65733127    0.11810000
opls_144-192    H    0.66910992    0.63445007    0.42118097    0.11550000
opls_168-193    H    0.62592004    0.72830988    0.97971052    0.28760000
opls_146-194    H    0.58461003    0.47169012    0.02785935    0.10340000
opls_146-195    H    0.95474000    0.13391994    0.19910063    0.11170000
opls_146-196    H    0.41564003    0.55644003    0.54163039    0.21840000
opls_146-197    H    0.90611999    0.16617996    0.07489905    0.11220000
opls_146-198    H    0.36420998    0.58662997    0.47349101    0.11050000
opls_146-199    H    0.23720006    0.69586009    0.64482930    0.11490000
opls_146-200    H    0.79962002    0.27658004    0.97938015    0.11080000
opls_146-201    H    0.28465008    0.66007992    0.65733127    0.11820000
opls_144-202    H    0.16910992    0.13445007    0.42118097    0.11560000
opls_168-203    H    0.12592004    0.22830988    0.97971052    0.28760000
opls_146-204    H    0.91538997    0.02830988    0.02785935    0.10350000
opls_146-205    H    0.54526000    0.36608006    0.19910063    0.11170000
opls_146-206    H    0.08435997    0.94355997    0.54163039    0.21850000
opls_146-207    H    0.59388001    0.33382004    0.07489905    0.11220000
opls_146-208    H    0.13579002    0.91337003    0.47349101    0.11050000
opls_146-209    H    0.26279994    0.80413991    0.64482930    0.11490000
opls_146-210    H    0.70037998    0.22341996    0.97938015    0.11080000
opls_146-211    H    0.21534992    0.83992008    0.65733127    0.11810000
opls_144-212    H    0.33089008    0.36554993    0.42118097    0.11550000
opls_168-213    H    0.37407996    0.27169012    0.97971052    0.28770000
opls_146-214    H    0.41538997    0.52830988    0.02785935    0.10340000
opls_146-215    H    0.04526000    0.86608006    0.19910063    0.11170000
opls_146-216    H    0.58435997    0.44355997    0.54163039    0.21840000
opls_146-217    H    0.09388001    0.83382004    0.07489905    0.11220000
opls_146-218    H    0.63579002    0.41337003    0.47349101    0.11050000
opls_146-219    H    0.76279994    0.30413991    0.64482930    0.11490000
opls_146-220    H    0.20037998    0.72341996    0.97938015    0.11080000
opls_146-221    H    0.71534992    0.33992008    0.65733127    0.11810000
opls_144-222    H    0.83089008    0.86554993    0.42118097    0.11550000
opls_168-223    H    0.87407996    0.77169012    0.97971052    0.28770000
opls_146-224    H    0.50000000    0.38558000    0.00000000    0.09260000
opls_146-225    H    0.00000000    0.88558000    0.00000000    0.09260000
opls_146-226    H    0.50000000    0.61442000    0.00000000    0.09260000
opls_146-227    H    0.00000000    0.11442000    0.00000000    0.09260000
opls_167-228    O    0.64533009    0.74421988    0.98719912    -0.48350000
opls_167-229    O    0.14533009    0.24421988    0.98719912    -0.48360000
opls_167-230    O    0.35466991    0.25577988    0.98719912    -0.48350000
opls_167-231    O    0.85466991    0.75578012    0.98719912    -0.48360000
opls_167-232    O    0.35466991    0.74421988    0.01280088    -0.48350000
opls_167-233    O    0.85466991    0.24421988    0.01280088    -0.48350000
opls_167-234    O    0.64533009    0.25577988    0.01280088    -0.48350000
opls_167-235    O    0.14533009    0.75578012    0.01280088    -0.48360000
