#======================================================================
# Crystal Data Generated By AuToFF
#----------------------------------------------------------------------

data_AuToFF_phase_1

_cell_length_a                         30.3177
_cell_length_b                         23.5057
_cell_length_c                         6.7333
_cell_angle_alpha                      90.00
_cell_angle_beta                       90.00
_cell_angle_gamma                      90.00
_symmetry_space_group_name_H-M_alt     'P 1'
_symmetry_space_group_IT_number        1

loop_
_space_group_symop_operation_xyz
   'x, y, z'

loop_
   _atom_site_label
   _atom_site_type_symbol
   _atom_site_fract_x
   _atom_site_fract_y
   _atom_site_fract_z
   _atom_site_charge
opls_716-0    C    0.84979995    0.52630000    0.24688934    -0.14610000
opls_716-1    C    0.84931014    0.47057990    0.25784979    -0.14610000
opls_543-2    C    0.89502007    0.45190996    0.23465017    0.23390000
opls_543-3    C    0.89577013    0.54273006    0.21632929    0.22640000
opls_716-4    C    0.01085999    0.66867015    0.12871994    -0.13820000
opls_716-5    C    0.96597004    0.66938019    0.13399967    -0.13990000
opls_543-6    C    0.95288000    0.61388982    0.16826073    0.23960000
opls_543-7    C    0.02322999    0.61275010    0.15979980    0.23960000
opls_700-8    C    0.90887996    0.59920998    0.19900049    -0.05960000
opls_716-9    C    0.12506984    0.46646983    0.22510953    -0.16430000
opls_716-10    C    0.12543992    0.52212995    0.21392037    -0.16430000
opls_543-11    C    0.07944996    0.53986990    0.19424948    0.23470000
opls_543-12    C    0.07884008    0.44919020    0.21249016    0.23470000
opls_700-13    C    0.06719012    0.59663996    0.17983010    -0.05530000
opls_716-14    C    0.96333990    0.32131015    0.21970059    -0.14000000
opls_716-15    C    0.00827009    0.32062010    0.21411938    -0.13990000
opls_543-16    C    0.02152010    0.37692007    0.21603968    0.23970000
opls_543-17    C    0.95108996    0.37797981    0.22492983    0.23960000
opls_700-18    C    0.90720008    0.39493995    0.24238932    -0.05430000
opls_700-19    C    0.06582986    0.39262009    0.22216001    -0.05390000
opls_700-20    C    0.10151001    0.64188005    0.19791930    0.08120000
opls_700-21    C    0.87566999    0.64571997    0.22366002    0.08100000
opls_700-22    C    0.87274002    0.35076003    0.27912019    0.08090000
opls_700-23    C    0.10010984    0.34757995    0.24839974    0.08100000
opls_145-24    C    0.13861012    0.64334991    0.07279046    -0.07890000
opls_145-25    C    0.16928989    0.68772000    0.08829994    -0.13810000
opls_145-26    C    0.16288010    0.73110012    0.22870955    0.23100000
opls_145-27    C    0.12622000    0.72938989    0.35371957    -0.11370000
opls_145-28    C    0.09605016    0.68495003    0.33998931    -0.09430000
opls_145-29    C    0.88404991    0.68977993    0.35910029    -0.09590000
opls_145-30    C    0.85520999    0.73561009    0.37653008    -0.11370000
opls_145-31    C    0.81699008    0.73780998    0.26172011    0.23440000
opls_145-32    C    0.80767011    0.69345988    0.12821054    -0.13800000
opls_145-33    C    0.83702985    0.64777012    0.10874014    -0.07910000
opls_145-34    C    0.09656010    0.30883998    0.40598963    -0.09590000
opls_145-35    C    0.12732991    0.26527991    0.42870064    -0.11190000
opls_145-36    C    0.16270001    0.26033005    0.29706979    0.23370000
opls_145-37    C    0.16701993    0.29932995    0.14051060    -0.13770000
opls_145-38    C    0.13578998    0.34267008    0.11622978    -0.07910000
opls_145-39    C    0.83578009    0.34544983    0.15457948    -0.07890000
opls_145-40    C    0.80497003    0.30193995    0.18644944    -0.13810000
opls_145-41    C    0.81102986    0.26316000    0.34290021    0.23040000
opls_145-42    C    0.84759992    0.26875992    0.46733994    -0.11190000
opls_145-43    C    0.87796007    0.31239019    0.43698038    -0.09590000
opls_145-44    C    0.53666010    0.97229013    0.12960064    -0.07670000
opls_145-45    C    0.58268008    0.97237989    0.13762048    -0.13790000
opls_916-46    C    0.60453992    0.99651999    0.30054060    0.20350000
opls_145-47    C    0.57986985    0.02094003    0.45442057    -0.13790000
opls_145-48    C    0.53383007    0.02072987    0.44633983    -0.07690000
opls_700-49    C    0.51170999    0.99640981    0.28389051    0.07260000
opls_916-50    C    0.67381991    0.05220989    0.32169070    0.20240000
opls_916-51    C    0.67641015    0.94451006    0.28682073    0.19520000
opls_145-52    C    0.71536000    0.05766006    0.41165996    -0.13790000
opls_145-53    C    0.73745997    0.10972020    0.41082976    -0.09590000
opls_700-54    C    0.71806997    0.15776003    0.32404022    0.06670000
opls_145-55    C    0.67595002    0.15329984    0.24142991    -0.09440000
opls_145-56    C    0.65403015    0.10100018    0.23987941    -0.13770000
opls_145-57    C    0.65471985    0.89167989    0.29945940    -0.13810000
opls_145-58    C    0.67797986    0.84061015    0.27932069    -0.09440000
opls_700-59    C    0.72348001    0.84148994    0.24824974    0.07390000
opls_145-60    C    0.74545991    0.89367983    0.23458928    -0.09430000
opls_145-61    C    0.72207984    0.94449006    0.25168045    -0.13790000
opls_142-62    C    0.74802013    0.78795994    0.23467987    0.09790000
opls_142-63    C    0.74314015    0.21087013    0.30049010    0.01580000
opls_916-64    C    0.29974009    0.94111003    0.22348031    0.21790000
opls_916-65    C    0.29999010    0.04983983    0.26124040    0.22130000
opls_145-66    C    0.25359015    0.93848003    0.20915005    -0.11430000
opls_145-67    C    0.23154989    0.88681001    0.19405938    -0.11270000
opls_700-68    C    0.25523011    0.83581982    0.18948064    0.06960000
opls_145-69    C    0.30128011    0.83713014    0.19851930    -0.07670000
opls_145-70    C    0.32326991    0.88932982    0.21662929    -0.13760000
opls_145-71    C    0.32278999    0.10106995    0.22532933    -0.13810000
opls_145-72    C    0.30066991    0.15343002    0.22570062    -0.07670000
opls_700-73    C    0.25527002    0.15536019    0.26168001    0.06870000
opls_145-74    C    0.23255986    0.10492987    0.30170941    -0.11280000
opls_145-75    C    0.25474987    0.05319986    0.30361932    -0.11430000
opls_142-76    C    0.23145984    0.78160021    0.17939049    0.09790000
opls_142-77    C    0.23087009    0.20907993    0.24562993    0.01580000
opls_700-78    C    0.46291012    0.99620007    0.27496027    0.07330000
opls_145-79    C    0.43776012    0.01560005    0.43642048    -0.07690000
opls_145-80    C    0.39171012    0.01514016    0.42795954    -0.13790000
opls_916-81    C    0.37012009    0.99529008    0.25776959    0.19450000
opls_145-82    C    0.39499995    0.97607006    0.09578958    -0.13790000
opls_145-83    C    0.44101004    0.97644997    0.10459953    -0.07670000
opls_716-84    C    0.37026984    0.52125016    0.71752038    -0.14820000
opls_716-85    C    0.37072007    0.46557005    0.72784073    -0.16430000
opls_543-86    C    0.41693004    0.44830998    0.71378967    0.23600000
opls_543-87    C    0.41617999    0.53905010    0.69630939    0.24470000
opls_716-88    C    0.52936997    0.66873992    0.63071005    -0.13910000
opls_716-89    C    0.48445990    0.66794012    0.62682934    -0.13820000
opls_543-90    C    0.47223008    0.61202985    0.65892950    0.24130000
opls_543-91    C    0.54258008    0.61328018    0.66488943    0.23960000
opls_700-92    C    0.42832999    0.59584016    0.68085040    -0.05530000
opls_716-93    C    0.64645009    0.47029997    0.75484978    -0.14540000
opls_716-94    C    0.64588013    0.52598008    0.74238041    -0.14660000
opls_543-95    C    0.59984003    0.54229017    0.71264016    0.23280000
opls_543-96    C    0.60074016    0.45155005    0.73316056    0.23600000
opls_700-97    C    0.58659991    0.59869989    0.69499948    -0.05430000
opls_716-98    C    0.48776985    0.31995984    0.71560008    -0.13910000
opls_716-99    C    0.53267992    0.32074986    0.72164021    -0.13910000
opls_543-100    C    0.54479990    0.37745994    0.72627983    0.23960000
opls_543-101    C    0.47437009    0.37619982    0.71685058    0.23970000
opls_700-102    C    0.43002009    0.39169989    0.72285061    -0.05470000
opls_700-103    C    0.58863997    0.39458982    0.74268932    -0.05380000
opls_700-104    C    0.61970994    0.64526009    0.71970059    0.08080000
opls_700-105    C    0.39395996    0.64099006    0.69956930    0.08110000
opls_700-106    C    0.39578002    0.34654020    0.74841014    0.08080000
opls_700-107    C    0.62320987    0.35058986    0.77973950    0.08120000
opls_145-108    C    0.65819010    0.64773013    0.60361041    -0.07890000
opls_145-109    C    0.68752016    0.69341011    0.62390952    -0.13790000
opls_145-110    C    0.67835984    0.73727011    0.75952059    0.23210000
opls_145-111    C    0.64029989    0.73464989    0.87545928    -0.11370000
opls_145-112    C    0.61148009    0.68884015    0.85722009    -0.09590000
opls_145-113    C    0.39945016    0.68402005    0.84152050    -0.09420000
opls_145-114    C    0.36927999    0.72845991    0.85542008    -0.11360000
opls_145-115    C    0.33263011    0.73019991    0.73045015    0.23100000
opls_145-116    C    0.32621010    0.68681979    0.59015936    -0.13770000
opls_145-117    C    0.35687997    0.64245991    0.57449987    -0.07910000
opls_145-118    C    0.61835001    0.31287985    0.93957940    -0.09590000
opls_145-119    C    0.64875007    0.26929000    0.97038005    -0.11420000
opls_145-120    C    0.68498996    0.26312001    0.84422052    0.23440000
opls_145-121    C    0.69067014    0.30126990    0.68579003    -0.13810000
opls_145-122    C    0.65984986    0.34474021    0.65355027    -0.07890000
opls_145-123    C    0.35977004    0.34217998    0.61782039    -0.07910000
opls_145-124    C    0.32866016    0.29865011    0.64100961    -0.13770000
opls_145-125    C    0.33345010    0.25884020    0.79488067    0.23440000
opls_145-126    C    0.36912991    0.26325998    0.92506052    -0.11420000
opls_145-127    C    0.39977010    0.30702000    0.90354061    -0.09580000
opls_145-128    C    0.05464003    0.97403991    0.60531983    -0.07670000
opls_145-129    C    0.10065012    0.97366001    0.59736979    -0.13790000
opls_916-130    C    0.12540991    0.99442986    0.75742949    0.20360000
opls_145-131    C    0.10362000    0.01597017    0.92476943    -0.13780000
opls_145-132    C    0.05759012    0.01639985    0.93236006    -0.07690000
opls_700-133    C    0.03257998    0.99537984    0.77283947    0.07390000
opls_916-134    C    0.19563984    0.04884985    0.76181961    0.22120000
opls_916-135    C    0.19581004    0.94014984    0.72494022    0.18780000
opls_145-136    C    0.24085006    0.05202993    0.80432032    -0.11420000
opls_145-137    C    0.26314001    0.10373016    0.80196932    -0.11230000
opls_700-138    C    0.24057993    0.15426982    0.76106961    0.07080000
opls_145-139    C    0.19515992    0.15248004    0.72532933    -0.07670000
opls_145-140    C    0.17296992    0.10017996    0.72502933    -0.13810000
opls_145-141    C    0.17236994    0.88831007    0.72266051    -0.13810000
opls_145-142    C    0.19432015    0.83612018    0.70443022    -0.09560000
opls_700-143    C    0.24025008    0.83486006    0.69057966    0.07280000
opls_145-144    C    0.26383994    0.88590980    0.69098956    -0.11270000
opls_145-145    C    0.24180000    0.93761003    0.70598072    -0.11420000
opls_142-146    C    0.26405994    0.78068001    0.68077020    0.09790000
opls_142-147    C    0.26505012    0.20798019    0.74557052    0.01580000
opls_916-148    C    0.81904003    0.94389999    0.78374942    0.22070000
opls_916-149    C    0.82168007    0.05163003    0.81869960    0.19370000
opls_145-150    C    0.77325984    0.94391020    0.75176065    -0.13790000
opls_145-151    C    0.74986988    0.89307019    0.73556948    -0.09430000
opls_700-152    C    0.77192003    0.84085009    0.74740023    0.07310000
opls_145-153    C    0.81753992    0.83996988    0.77494988    -0.09430000
opls_145-154    C    0.84081015    0.89104005    0.79431928    -0.13810000
opls_145-155    C    0.84138012    0.10041011    0.73623929    -0.13760000
opls_145-156    C    0.81954007    0.15275997    0.73863930    -0.09420000
opls_700-157    C    0.77762000    0.15736013    0.82307932    0.06850000
opls_145-158    C    0.75829004    0.10937007    0.91055055    -0.09580000
opls_145-159    C    0.78029996    0.05722016    0.91032035    -0.13800000
opls_142-160    C    0.74733011    0.78734009    0.73383928    0.09790000
opls_142-161    C    0.75262998    0.21048001    0.79979059    0.01580000
opls_700-162    C    0.98375998    0.99570998    0.78104941    0.07390000
opls_145-163    C    0.96159999    0.02038016    0.94265962    -0.07670000
opls_145-164    C    0.91557011    0.02064988    0.95040025    -0.13790000
opls_916-165    C    0.89093005    0.99592992    0.79695989    0.20680000
opls_145-166    C    0.91284992    0.97150010    0.63474968    -0.13780000
opls_145-167    C    0.95886001    0.97136014    0.62706994    -0.07670000
opls_542-168    N    0.92263991    0.49667017    0.21099015    -0.32210000
opls_542-169    N    0.98778997    0.57812999    0.17714939    -0.32190000
opls_542-170    N    0.05172985    0.49470001    0.19555938    -0.32210000
opls_542-171    N    0.98658012    0.41281008    0.21733028    -0.32200000
opls_750-172    N    0.78281994    0.21506018    0.36986025    -0.24770000
opls_750-173    N    0.19115005    0.21222980    0.31605008    -0.24780000
opls_239-174    N    0.65200988    0.99744998    0.30774063    -0.12550000
opls_239-175    N    0.32266003    0.99527008    0.24861955    -0.12620000
opls_750-176    N    0.78967996    0.78708994    0.27666969    -0.24770000
opls_750-177    N    0.19087002    0.77973981    0.23872989    -0.24520000
opls_542-178    N    0.44394990    0.49390020    0.69646978    -0.32210000
opls_542-179    N    0.50773014    0.57747993    0.67534938    -0.32210000
opls_542-180    N    0.57302995    0.49618986    0.70890054    -0.32210000
opls_542-181    N    0.50922992    0.41220002    0.71827039    -0.32210000
opls_750-182    N    0.30503006    0.21071995    0.81277977    -0.24780000
opls_750-183    N    0.71311016    0.21494021    0.87138996    -0.24750000
opls_239-184    N    0.17289009    0.99434010    0.74928044    -0.12620000
opls_239-185    N    0.84346009    0.99685013    0.80411982    -0.12550000
opls_750-186    N    0.30460985    0.77886002    0.74031010    -0.24510000
opls_750-187    N    0.70565016    0.78651987    0.77528998    -0.24770000
F2_Co4+2-188    Co    0.98718999    0.49555002    0.20061931    0.80050000
F2_Co4+2-189    Co    0.50849009    0.49493017    0.70009951    0.80060000
opls_547-190    H    0.81772991    0.55129011    0.26123001    0.04880000
opls_547-191    H    0.81680998    0.44714984    0.28138060    0.04880000
opls_547-192    H    0.02990992    0.70980018    0.10229011    0.04880000
opls_547-193    H    0.94743005    0.71109008    0.11185006    0.04880000
opls_547-194    H    0.15737012    0.44208979    0.24133931    0.04880000
opls_547-195    H    0.15807004    0.54617008    0.22042980    0.04880000
opls_547-196    H    0.94413989    0.27961005    0.21932930    0.04880000
opls_547-197    H    0.02666000    0.27834015    0.20919014    0.04880000
opls_146-198    H    0.14384996    0.60834010    0.95802058    0.04880000
opls_146-199    H    0.19940992    0.68855980    0.98697964    0.04880000
opls_146-200    H    0.12084987    0.76452010    0.46791024    0.04880000
opls_146-201    H    0.06654990    0.68331001    0.44481012    0.04880000
opls_146-202    H    0.91478014    0.68833006    0.45655028    0.04890000
opls_146-203    H    0.86280984    0.77152988    0.48502072    0.04880000
opls_146-204    H    0.77620004    0.69464002    0.03563929    0.04880000
opls_146-205    H    0.82943990    0.61214982    0.99901980    0.04880000
opls_146-206    H    0.06832016    0.31281987    0.51690998    0.04880000
opls_146-207    H    0.12370002    0.23343019    0.55532948    0.04880000
opls_146-208    H    0.19594989    0.29572997    0.03308927    0.04880000
opls_146-209    H    0.13921999    0.37425008    0.98865044    0.04880000
opls_146-210    H    0.83074013    0.37662014    0.02686944    0.04880000
opls_146-211    H    0.77495984    0.29798985    0.08539052    0.04880000
opls_146-212    H    0.85275994    0.23751984    0.59473958    0.04880000
opls_146-213    H    0.90727001    0.31674019    0.54194971    0.04880000
opls_146-214    H    0.51901002    0.95252003    0.99698959    0.04880000
opls_146-215    H    0.60260013    0.95277996    0.01138966    0.04880000
opls_146-216    H    0.59735996    0.04107004    0.58679993    0.04880000
opls_146-217    H    0.51387012    0.04041020    0.57230036    0.04890000
opls_146-218    H    0.73135000    0.01933021    0.48633954    0.04880000
opls_146-219    H    0.77154995    0.11338016    0.48112070    0.04880000
opls_146-220    H    0.65933003    0.19240993    0.17493948    0.04880000
opls_146-221    H    0.61972016    0.09816002    0.17128006    0.04880000
opls_146-222    H    0.61762007    0.89005986    0.32649964    0.04880000
opls_146-223    H    0.65976014    0.79826000    0.28828955    0.04880000
opls_146-224    H    0.78262995    0.89475021    0.20939064    0.04880000
opls_146-225    H    0.74060005    0.98647988    0.23668929    0.04880000
opls_144-226    H    0.73043008    0.74730002    0.18730934    0.02880000
opls_144-227    H    0.72741996    0.24850994    0.22053971    0.02880000
opls_146-228    H    0.23332014    0.97933012    0.20973074    0.04880000
opls_146-229    H    0.19399987    0.88590980    0.18535933    0.04880000
opls_146-230    H    0.32087988    0.79580017    0.19116035    0.04880000
opls_146-231    H    0.36080013    0.89046019    0.22611053    0.04880000
opls_146-232    H    0.35979016    0.10033013    0.19537968    0.04880000
opls_146-233    H    0.31969015    0.19442986    0.19667028    0.04880000
opls_146-234    H    0.19562005    0.10607002    0.33305066    0.04880000
opls_146-235    H    0.23543013    0.01295984    0.34059971    0.04880000
opls_144-236    H    0.24873985    0.74202002    0.12006000    0.02880000
opls_144-237    H    0.24686998    0.24753996    0.17177016    0.02880000
opls_146-238    H    0.45489005    0.03191013    0.57597018    0.04880000
opls_146-239    H    0.37160009    0.03096015    0.55993049    0.04880000
opls_146-240    H    0.37768004    0.96005990    0.95627998    0.04880000
opls_146-241    H    0.46081002    0.96053000    0.97183996    0.04890000
opls_547-242    H    0.33763016    0.54522010    0.72569023    0.04880000
opls_547-243    H    0.33846994    0.44111003    0.74452052    0.04880000
opls_547-244    H    0.54783015    0.71048001    0.60774063    0.04880000
opls_547-245    H    0.46533015    0.70899994    0.60053020    0.04880000
opls_547-246    H    0.67900995    0.44698009    0.77830039    0.04880000
opls_547-247    H    0.67793995    0.55105996    0.75513938    0.04880000
opls_547-248    H    0.46943996    0.27763989    0.71085946    0.04880000
opls_547-249    H    0.55193006    0.27909018    0.72199070    0.04880000
opls_146-250    H    0.66563987    0.61245996    0.49233957    0.04880000
opls_146-251    H    0.71884015    0.69501015    0.53036995    0.04880000
opls_146-252    H    0.63267992    0.77010980    0.98573953    0.04880000
opls_146-253    H    0.58077987    0.68643010    0.95464037    0.04880000
opls_146-254    H    0.42885014    0.68283012    0.94700073    0.04900000
opls_146-255    H    0.37446013    0.76369008    0.96941024    0.04880000
opls_146-256    H    0.29606006    0.68770000    0.48904995    0.04880000
opls_146-257    H    0.35165003    0.60745989    0.45967950    0.04880000
opls_146-258    H    0.58932010    0.31771017    0.04586013    0.04880000
opls_146-259    H    0.64410988    0.23840005    0.09920990    0.04880000
opls_146-260    H    0.72037984    0.29691011    0.58315982    0.04880000
opls_146-261    H    0.66461011    0.37542979    0.52423032    0.04880000
opls_146-262    H    0.35574005    0.37421009    0.49199055    0.04880000
opls_146-263    H    0.29945016    0.29555002    0.53492938    0.04880000
opls_146-264    H    0.37333010    0.23094994    0.04991015    0.04880000
opls_146-265    H    0.42826006    0.31055021    0.01333967    0.04880000
opls_146-266    H    0.03462994    0.95691981    0.47503007    0.04880000
opls_146-267    H    0.11821015    0.95641015    0.46031069    0.04890000
opls_146-268    H    0.12347012    0.03322981    0.05535027    0.04880000
opls_146-269    H    0.03997995    0.03391986    0.06889044    0.04880000
opls_146-270    H    0.26005007    0.01172992    0.84172991    0.04880000
opls_146-271    H    0.30006993    0.10510982    0.83353036    0.04880000
opls_146-272    H    0.17620994    0.19355008    0.69646978    0.04880000
opls_146-273    H    0.13598987    0.09956011    0.69439057    0.04880000
opls_146-274    H    0.13487995    0.88839005    0.73578929    0.04880000
opls_146-275    H    0.17466991    0.79477999    0.70092971    0.04880000
opls_146-276    H    0.30134014    0.88532016    0.67899990    0.04880000
opls_146-277    H    0.26198986    0.97852010    0.70256932    0.04890000
opls_144-278    H    0.24683007    0.74105983    0.62142931    0.02880000
opls_144-279    H    0.24885001    0.24678014    0.67489047    0.02880000
opls_146-280    H    0.75469016    0.98592001    0.73866009    0.04880000
opls_146-281    H    0.71262002    0.89390020    0.71258967    0.04880000
opls_146-282    H    0.83582000    0.79762994    0.78165981    0.04880000
opls_146-283    H    0.87799998    0.89033001    0.81910059    0.04880000
opls_146-284    H    0.87556015    0.09750997    0.66638053    0.04880000
opls_146-285    H    0.83594006    0.19193004    0.67148946    0.04880000
opls_146-286    H    0.72436003    0.11275988    0.98255981    0.04880000
opls_146-287    H    0.76470016    0.01862995    0.98501032    0.04880000
opls_144-288    H    0.76490994    0.74662997    0.68692023    0.02880000
opls_144-289    H    0.76820999    0.24791987    0.71813969    0.02880000
opls_146-290    H    0.98120009    0.04043019    0.06908054    0.04880000
opls_146-291    H    0.89792003    0.04103005    0.08187961    0.04880000
opls_146-292    H    0.89310007    0.95165003    0.50845054    0.04880000
opls_146-293    H    0.97620994    0.95123991    0.49428958    0.04880000
