#======================================================================
# Crystal Data Generated By AuToFF
#----------------------------------------------------------------------

data_AuToFF_phase_1

_cell_length_a                         15.3877
_cell_length_b                         15.3798
_cell_length_c                         6.9643
_cell_angle_alpha                      90.00
_cell_angle_beta                       90.00
_cell_angle_gamma                      59.89
_symmetry_space_group_name_H-M_alt     'P 1'
_symmetry_space_group_IT_number        1

loop_
_space_group_symop_operation_xyz
   'x, y, z'

loop_
   _atom_site_label
   _atom_site_type_symbol
   _atom_site_fract_x
   _atom_site_fract_y
   _atom_site_fract_z
   _atom_site_charge
opls_700-0    C    0.34382026    0.13436971    0.99988944    -0.07590000
opls_231-1    C    0.41470988    0.16833963    0.99990954    0.27190000
opls_700-2    C    0.38355975    0.27284999    0.99981046    -0.07430000
opls_231-3    C    0.27858967    0.34396991    0.99963959    0.27190000
opls_700-4    C    0.20524023    0.31296961    0.99958933    -0.08470000
opls_231-5    C    0.23937024    0.20791960    0.99974010    0.39760000
opls_142-6    C    0.46263977    0.29930979    0.99988944    0.07670000
opls_142-7    C    0.37041014    0.02868007    0.00002010    0.07670000
opls_142-8    C    0.09947982    0.39207017    0.99939980    0.07670000
opls_141-9    C    0.49156968    0.51339037    0.00013067    0.50660000
opls_700-10    C    0.57350986    0.53975021    0.00014933    -0.02490000
opls_145-11    C    0.54158023    0.64307001    0.00026995    -0.05530000
opls_145-12    C    0.67694006    0.46991028    0.00004021    -0.05530000
opls_700-13    C    0.61115983    0.67677011    0.00030010    -0.02520000
opls_700-14    C    0.74822012    0.50184033    0.00005026    -0.02520000
opls_145-15    C    0.71442952    0.60525032    0.00020964    -0.05600000
opls_141-16    C    0.85672992    0.42023990    0.99997990    0.53890000
opls_141-17    C    0.58452963    0.78517007    0.00038051    0.53790000
opls_700-18    C    0.34382007    0.13437008    0.49988944    -0.07590000
opls_231-19    C    0.41470969    0.16834001    0.49990954    0.27190000
opls_700-20    C    0.38355994    0.27284961    0.49981046    -0.07430000
opls_231-21    C    0.27858948    0.34397029    0.49963959    0.27190000
opls_700-22    C    0.20524004    0.31296999    0.49958933    -0.08470000
opls_231-23    C    0.23937005    0.20791998    0.49974010    0.39760000
opls_142-24    C    0.46263958    0.29931017    0.49988944    0.07670000
opls_142-25    C    0.37041033    0.02867969    0.50002010    0.07670000
opls_142-26    C    0.09948000    0.39206980    0.49939980    0.07670000
opls_141-27    C    0.49156987    0.51339000    0.50013067    0.50650000
opls_700-28    C    0.57351005    0.53974983    0.50014933    -0.02490000
opls_145-29    C    0.54157977    0.64306964    0.50026995    -0.05530000
opls_145-30    C    0.67693959    0.46990990    0.50004021    -0.05530000
opls_700-31    C    0.61116002    0.67676973    0.50030010    -0.02520000
opls_700-32    C    0.74821965    0.50183995    0.50005026    -0.02520000
opls_145-33    C    0.71442971    0.60524995    0.50020964    -0.05600000
opls_141-34    C    0.85672973    0.42024028    0.49997990    0.53890000
opls_141-35    C    0.58452981    0.78516969    0.50038051    0.53790000
opls_144-36    H    0.54496972    0.23758954    0.99989949    0.03160000
opls_144-37    H    0.30880026    0.00811968    0.99997990    0.03160000
opls_144-38    H    0.07856971    0.47443950    0.99905949    0.03160000
opls_146-39    H    0.45795010    0.70099987    0.00034031    0.05330000
opls_146-40    H    0.70435970    0.38593025    0.99993969    0.05350000
opls_146-41    H    0.77219979    0.63096979    0.00026995    0.05350000
opls_144-42    H    0.54497018    0.23758992    0.49989949    0.03160000
opls_144-43    H    0.30880007    0.00812006    0.49997990    0.03160000
opls_144-44    H    0.07857018    0.47443987    0.49905949    0.03160000
opls_146-45    H    0.45794992    0.70100025    0.50034031    0.05350000
opls_146-46    H    0.70435989    0.38592987    0.49993969    0.05350000
opls_146-47    H    0.77219960    0.63097016    0.50026995    0.05350000
opls_750-48    N    0.44172975    0.39224004    0.99994974    -0.10890000
opls_750-49    N    0.46336986    0.95647030    0.00017949    -0.10950000
opls_750-50    N    0.51804969    0.41274030    0.00001005    -0.19890000
opls_750-51    N    0.48398968    0.85956026    0.00028000    -0.19850000
opls_750-52    N    0.02768983    0.37100019    0.99960944    -0.11000000
opls_750-53    N    0.93052987    0.44698982    0.99945005    -0.19860000
opls_750-54    N    0.44172994    0.39223967    0.49994974    -0.10890000
opls_750-55    N    0.46337005    0.95646993    0.50017949    -0.10950000
opls_750-56    N    0.51804988    0.41273992    0.50001005    -0.19880000
opls_750-57    N    0.48398987    0.85955989    0.50028000    -0.19850000
opls_750-58    N    0.02769002    0.37099982    0.49960944    -0.10900000
opls_750-59    N    0.93052968    0.44699020    0.49945005    -0.19850000
opls_272-60    O    0.40253030    0.57970974    0.00019959    -0.31090000
opls_272-61    O    0.88001014    0.33109027    0.00039056    -0.31090000
opls_272-62    O    0.65063003    0.80798981    0.00048964    -0.33080000
opls_272-63    O    0.24103998    0.44481014    0.99953046    -0.21610000
opls_272-64    O    0.51554018    0.10505002    0.00004021    -0.21600000
opls_272-65    O    0.17629987    0.17035020    0.99974010    -0.21600000
opls_272-66    O    0.40253011    0.57971012    0.50019959    -0.31090000
opls_272-67    O    0.88000968    0.33108990    0.50039056    -0.32840000
opls_272-68    O    0.65062984    0.80799018    0.50048964    -0.33080000
opls_272-69    O    0.24104017    0.44480977    0.49953046    -0.21610000
opls_272-70    O    0.51554036    0.10504964    0.50004021    -0.21600000
opls_272-71    O    0.17630006    0.17034982    0.49974010    -0.21600000
