#======================================================================
# Crystal Data Generated By AuToFF
#----------------------------------------------------------------------

data_AuToFF_phase_1

_cell_length_a                         31.8035
_cell_length_b                         40.7389
_cell_length_c                         5.8314
_cell_angle_alpha                      90.00
_cell_angle_beta                       92.98
_cell_angle_gamma                      90.00
_symmetry_space_group_name_H-M_alt     'P 1'
_symmetry_space_group_IT_number        1

loop_
_space_group_symop_operation_xyz
   'x, y, z'

loop_
   _atom_site_label
   _atom_site_type_symbol
   _atom_site_fract_x
   _atom_site_fract_y
   _atom_site_fract_z
   _atom_site_charge
opls_750-0    N    0.36117988    0.10604999    0.45023036    -0.35660000
opls_237-1    N    0.06301991    0.77723994    0.57638065    -0.58400000
opls_750-2    N    0.86117988    0.60604999    0.45023036    -0.35660000
opls_237-3    N    0.56301991    0.27723994    0.57638065    -0.58410000
opls_750-4    N    0.63881981    0.10604999    0.54976964    -0.35660000
opls_237-5    N    0.93698009    0.77723994    0.42361935    -0.58410000
opls_750-6    N    0.13881981    0.60604999    0.54976964    -0.35650000
opls_237-7    N    0.43698009    0.27723994    0.42361935    -0.58410000
opls_750-8    N    0.63881981    0.89395001    0.54976964    -0.35650000
opls_237-9    N    0.93698009    0.22276006    0.42361935    -0.58410000
opls_750-10    N    0.13881981    0.39395001    0.54976964    -0.35660000
opls_237-11    N    0.43698009    0.72276006    0.42361935    -0.58400000
opls_750-12    N    0.36117988    0.89395001    0.45023036    -0.35660000
opls_237-13    N    0.06301991    0.22276006    0.57638065    -0.58400000
opls_750-14    N    0.86117988    0.39395001    0.45023036    -0.35660000
opls_237-15    N    0.56301991    0.72276006    0.57638065    -0.58410000
opls_142-16    C    0.35009007    0.12699999    0.29027926    0.06780000
opls_700-17    C    0.31899008    0.15284998    0.33447067    0.06650000
opls_145-18    C    0.13550988    0.21484993    0.73240114    -0.17820000
opls_145-19    C    0.17894988    0.21767991    0.71160963    -0.12540000
opls_700-20    C    0.19482991    0.23092990    0.51142005    0.06080000
opls_145-21    C    0.16668997    0.24160004    0.33368936    -0.12350000
opls_145-22    C    0.12325991    0.23888004    0.35493077    -0.17880000
opls_700-23    C    0.46075980    0.03622999    0.47272015    0.06730000
opls_145-24    C    0.43416981    0.03977992    0.65536024    -0.12850000
opls_145-25    C    0.40036007    0.06164992    0.63901963    -0.17730000
opls_145-26    C    0.39345997    0.08140991    0.44445036    0.18280000
opls_145-27    C    0.42037986    0.07812999    0.26142048    -0.17580000
opls_145-28    C    0.45364011    0.05566989    0.27628947    -0.12570000
opls_916-29    C    0.10745992    0.22545012    0.55428065    0.21410000
opls_145-30    C    0.29803980    0.15367990    0.54092964    -0.13400000
opls_145-31    C    0.27144006    0.17982002    0.58817075    -0.12600000
opls_700-32    C    0.26536988    0.20556004    0.43057046    0.06570000
opls_145-33    C    0.28462999    0.20396992    0.21984089    -0.12430000
opls_145-34    C    0.31160997    0.17800996    0.17316988    -0.12630000
opls_141-35    C    0.25923979    0.26502998    0.50980076    -0.02670000
opls_142-36    C    0.85009007    0.62699999    0.29027926    0.06780000
opls_700-37    C    0.81899008    0.65284998    0.33447067    0.06650000
opls_145-38    C    0.63550988    0.71484993    0.73240114    -0.17820000
opls_145-39    C    0.67894988    0.71767991    0.71160963    -0.12540000
opls_700-40    C    0.69482991    0.73092990    0.51142005    0.06080000
opls_145-41    C    0.66668997    0.74160004    0.33368936    -0.12350000
opls_145-42    C    0.62325991    0.73888004    0.35493077    -0.17880000
opls_700-43    C    0.96075980    0.53622999    0.47272015    0.06730000
opls_145-44    C    0.93416981    0.53977992    0.65536024    -0.12850000
opls_145-45    C    0.90036007    0.56164992    0.63901963    -0.17730000
opls_145-46    C    0.89345997    0.58140991    0.44445036    0.18280000
opls_145-47    C    0.92037986    0.57812999    0.26142048    -0.17570000
opls_145-48    C    0.95364011    0.55566989    0.27628947    -0.12570000
opls_916-49    C    0.60745992    0.72545012    0.55428065    0.21410000
opls_145-50    C    0.79803980    0.65367990    0.54092964    -0.13400000
opls_145-51    C    0.77144006    0.67982002    0.58817075    -0.12600000
opls_700-52    C    0.76536988    0.70556004    0.43057046    0.06570000
opls_145-53    C    0.78462999    0.70396992    0.21984089    -0.12430000
opls_145-54    C    0.81160997    0.67800996    0.17316988    -0.12630000
opls_141-55    C    0.75923979    0.76502998    0.50980076    -0.02670000
opls_142-56    C    0.64990993    0.12699999    0.70972074    0.06780000
opls_700-57    C    0.68100993    0.15284998    0.66553104    0.06650000
opls_145-58    C    0.86448982    0.21484993    0.26760058    -0.17820000
opls_145-59    C    0.82105012    0.21767991    0.28839037    -0.12540000
opls_700-60    C    0.80517009    0.23092990    0.48857995    0.06080000
opls_145-61    C    0.83331003    0.24160004    0.66631064    -0.12350000
opls_145-62    C    0.87673979    0.23888004    0.64507094    -0.17880000
opls_700-63    C    0.53923988    0.03622999    0.52727985    0.06730000
opls_145-64    C    0.56582987    0.03977992    0.34463976    -0.12850000
opls_145-65    C    0.59963993    0.06164992    0.36098037    -0.17730000
opls_145-66    C    0.60654003    0.08140991    0.55554964    0.18280000
opls_145-67    C    0.57961983    0.07812999    0.73857952    -0.17580000
opls_145-68    C    0.54635989    0.05566989    0.72371053    -0.12570000
opls_916-69    C    0.89254008    0.22545012    0.44571935    0.21410000
opls_145-70    C    0.70195988    0.15367990    0.45907036    -0.13400000
opls_145-71    C    0.72855996    0.17982002    0.41183097    -0.12600000
opls_700-72    C    0.73462980    0.20556004    0.56942954    0.06570000
opls_145-73    C    0.71537002    0.20396992    0.78016083    -0.12430000
opls_145-74    C    0.68839003    0.17800996    0.82683012    -0.12630000
opls_141-75    C    0.74075991    0.26502998    0.49020096    -0.02670000
opls_142-76    C    0.14990993    0.62699999    0.70972074    0.06780000
opls_700-77    C    0.18100993    0.65284998    0.66553104    0.06650000
opls_145-78    C    0.36448982    0.71484993    0.26760058    -0.17820000
opls_145-79    C    0.32105012    0.71767991    0.28839037    -0.12540000
opls_700-80    C    0.30517009    0.73092990    0.48857995    0.06080000
opls_145-81    C    0.33331003    0.74160004    0.66631064    -0.12350000
opls_145-82    C    0.37673979    0.73888004    0.64507094    -0.17880000
opls_700-83    C    0.03923988    0.53622999    0.52727985    0.06730000
opls_145-84    C    0.06582987    0.53977992    0.34463976    -0.12850000
opls_145-85    C    0.09963993    0.56164992    0.36098037    -0.17730000
opls_145-86    C    0.10654003    0.58140991    0.55554964    0.18280000
opls_145-87    C    0.07961983    0.57812999    0.73857952    -0.17580000
opls_145-88    C    0.04635989    0.55566989    0.72371053    -0.12570000
opls_916-89    C    0.39254008    0.72545012    0.44571935    0.21420000
opls_145-90    C    0.20195988    0.65367990    0.45907036    -0.13400000
opls_145-91    C    0.22855996    0.67982002    0.41183097    -0.12600000
opls_700-92    C    0.23462980    0.70556004    0.56942954    0.06570000
opls_145-93    C    0.21537002    0.70396992    0.78016083    -0.12430000
opls_145-94    C    0.18839003    0.67800996    0.82683012    -0.12630000
opls_141-95    C    0.24075991    0.76502998    0.49020096    -0.02670000
opls_142-96    C    0.64990993    0.87300001    0.70972074    0.06780000
opls_700-97    C    0.68100993    0.84715002    0.66553104    0.06650000
opls_145-98    C    0.86448982    0.78515007    0.26760058    -0.17820000
opls_145-99    C    0.82105012    0.78232009    0.28839037    -0.12540000
opls_700-100    C    0.80517009    0.76907010    0.48857995    0.06080000
opls_145-101    C    0.83331003    0.75839996    0.66631064    -0.12340000
opls_145-102    C    0.87673979    0.76111996    0.64507094    -0.17880000
opls_700-103    C    0.53923988    0.96377001    0.52727985    0.06730000
opls_145-104    C    0.56582987    0.96022008    0.34463976    -0.12840000
opls_145-105    C    0.59963993    0.93835008    0.36098037    -0.17730000
opls_145-106    C    0.60654003    0.91859009    0.55554964    0.18280000
opls_145-107    C    0.57961983    0.92187001    0.73857952    -0.17570000
opls_145-108    C    0.54635989    0.94433011    0.72371053    -0.12570000
opls_916-109    C    0.89254008    0.77454988    0.44571935    0.21410000
opls_145-110    C    0.70195988    0.84632010    0.45907036    -0.13400000
opls_145-111    C    0.72855996    0.82017998    0.41183097    -0.12600000
opls_700-112    C    0.73462980    0.79443996    0.56942954    0.06570000
opls_145-113    C    0.71537002    0.79603008    0.78016083    -0.12430000
opls_145-114    C    0.68839003    0.82199004    0.82683012    -0.12630000
opls_141-115    C    0.74075991    0.73497002    0.49020096    -0.02670000
opls_142-116    C    0.14990993    0.37300001    0.70972074    0.06780000
opls_700-117    C    0.18100993    0.34715002    0.66553104    0.06660000
opls_145-118    C    0.36448982    0.28515007    0.26760058    -0.17820000
opls_145-119    C    0.32105012    0.28232009    0.28839037    -0.12540000
opls_700-120    C    0.30517009    0.26907010    0.48857995    0.06080000
opls_145-121    C    0.33331003    0.25839996    0.66631064    -0.12350000
opls_145-122    C    0.37673979    0.26111996    0.64507094    -0.17880000
opls_700-123    C    0.03923988    0.46377001    0.52727985    0.06730000
opls_145-124    C    0.06582987    0.46022008    0.34463976    -0.12850000
opls_145-125    C    0.09963993    0.43835008    0.36098037    -0.17730000
opls_145-126    C    0.10654003    0.41859009    0.55554964    0.18280000
opls_145-127    C    0.07961983    0.42187001    0.73857952    -0.17580000
opls_145-128    C    0.04635989    0.44433011    0.72371053    -0.12570000
opls_916-129    C    0.39254008    0.27455012    0.44571935    0.21410000
opls_145-130    C    0.20195988    0.34632010    0.45907036    -0.13400000
opls_145-131    C    0.22855996    0.32017998    0.41183097    -0.12600000
opls_700-132    C    0.23462980    0.29443996    0.56942954    0.06570000
opls_145-133    C    0.21537002    0.29603008    0.78016083    -0.12430000
opls_145-134    C    0.18839003    0.32199004    0.82683012    -0.12630000
opls_141-135    C    0.24075991    0.23497002    0.49020096    -0.02670000
opls_142-136    C    0.35009007    0.87300001    0.29027926    0.06780000
opls_700-137    C    0.31899008    0.84715002    0.33447067    0.06650000
opls_145-138    C    0.13550988    0.78515007    0.73240114    -0.17810000
opls_145-139    C    0.17894988    0.78232009    0.71160963    -0.12540000
opls_700-140    C    0.19482991    0.76907010    0.51142005    0.06080000
opls_145-141    C    0.16668997    0.75839996    0.33368936    -0.12340000
opls_145-142    C    0.12325991    0.76111996    0.35493077    -0.17880000
opls_700-143    C    0.46075980    0.96377001    0.47272015    0.06730000
opls_145-144    C    0.43416981    0.96022008    0.65536024    -0.12850000
opls_145-145    C    0.40036007    0.93835008    0.63901963    -0.17730000
opls_145-146    C    0.39345997    0.91859009    0.44445036    0.18290000
opls_145-147    C    0.42037986    0.92187001    0.26142048    -0.17570000
opls_145-148    C    0.45364011    0.94433011    0.27628947    -0.12570000
opls_916-149    C    0.10745992    0.77454988    0.55428065    0.21410000
opls_145-150    C    0.29803980    0.84632010    0.54092964    -0.13400000
opls_145-151    C    0.27144006    0.82017998    0.58817075    -0.12600000
opls_700-152    C    0.26536988    0.79443996    0.43057046    0.06570000
opls_145-153    C    0.28462999    0.79603008    0.21984089    -0.12420000
opls_145-154    C    0.31160997    0.82199004    0.17316988    -0.12630000
opls_141-155    C    0.25923979    0.73497002    0.50980076    -0.02670000
opls_142-156    C    0.85009007    0.37300001    0.29027926    0.06780000
opls_700-157    C    0.81899008    0.34715002    0.33447067    0.06650000
opls_145-158    C    0.63550988    0.28515007    0.73240114    -0.17820000
opls_145-159    C    0.67894988    0.28232009    0.71160963    -0.12540000
opls_700-160    C    0.69482991    0.26907010    0.51142005    0.06080000
opls_145-161    C    0.66668997    0.25839996    0.33368936    -0.12350000
opls_145-162    C    0.62325991    0.26111996    0.35493077    -0.17880000
opls_700-163    C    0.96075980    0.46377001    0.47272015    0.06730000
opls_145-164    C    0.93416981    0.46022008    0.65536024    -0.12850000
opls_145-165    C    0.90036007    0.43835008    0.63901963    -0.17730000
opls_145-166    C    0.89345997    0.41859009    0.44445036    0.18290000
opls_145-167    C    0.92037986    0.42187001    0.26142048    -0.17580000
opls_145-168    C    0.95364011    0.44433011    0.27628947    -0.12570000
opls_916-169    C    0.60745992    0.27455012    0.55428065    0.21410000
opls_145-170    C    0.79803980    0.34632010    0.54092964    -0.13400000
opls_145-171    C    0.77144006    0.32017998    0.58817075    -0.12600000
opls_700-172    C    0.76536988    0.29443996    0.43057046    0.06570000
opls_145-173    C    0.78462999    0.29603008    0.21984089    -0.12430000
opls_145-174    C    0.81160997    0.32199004    0.17316988    -0.12630000
opls_141-175    C    0.75923979    0.23497002    0.50980076    -0.02670000
opls_141-176    C    0.99999985    0.48331006    0.50000086    -0.03400000
opls_141-177    C    0.49999985    0.98331006    0.50000086    -0.03400000
opls_141-178    C    0.99999985    0.51668994    0.50000086    -0.03400000
opls_141-179    C    0.49999985    0.01668994    0.50000086    -0.03400000
opls_144-180    H    0.36480006    0.12709990    0.12736948    0.11470000
opls_146-181    H    0.12370988    0.20461009    0.88784122    0.11160000
opls_146-182    H    0.19998980    0.21027004    0.85392022    0.11600000
opls_146-183    H    0.17836991    0.25225006    0.17960927    0.11460000
opls_146-184    H    0.10195998    0.24731006    0.21642028    0.10990000
opls_146-185    H    0.44065980    0.02690991    0.81488032    0.10580000
opls_146-186    H    0.38039998    0.06424989    0.78277093    0.10980000
opls_146-187    H    0.41711984    0.09336997    0.11026989    0.11290000
opls_146-188    H    0.47493995    0.05435002    0.13828039    0.11370000
opls_146-189    H    0.30299002    0.13457997    0.66868034    0.10720000
opls_146-190    H    0.25684991    0.18036005    0.75115093    0.11680000
opls_146-191    H    0.27942994    0.22329003    0.09425039    0.11360000
opls_146-192    H    0.32751008    0.17798001    0.01343000    0.10980000
opls_909-193    H    0.44906994    0.71297998    0.27510977    0.26330000
opls_909-194    H    0.45812005    0.73055998    0.55549984    0.26330000
opls_144-195    H    0.86480006    0.62709990    0.12736948    0.11470000
opls_146-196    H    0.62370988    0.70461009    0.88784122    0.11160000
opls_146-197    H    0.69998980    0.71027004    0.85392022    0.11590000
opls_146-198    H    0.67836991    0.75225006    0.17960927    0.11460000
opls_146-199    H    0.60195998    0.74731006    0.21642028    0.10980000
opls_146-200    H    0.94065980    0.52690991    0.81488032    0.10580000
opls_146-201    H    0.88039998    0.56424989    0.78277093    0.10980000
opls_146-202    H    0.91711984    0.59336997    0.11026989    0.11290000
opls_146-203    H    0.97493995    0.55435002    0.13828039    0.11370000
opls_146-204    H    0.80299002    0.63457997    0.66868034    0.10720000
opls_146-205    H    0.75684991    0.68036005    0.75115093    0.11680000
opls_146-206    H    0.77942994    0.72329003    0.09425039    0.11360000
opls_146-207    H    0.82751008    0.67798001    0.01343000    0.10980000
opls_909-208    H    0.94906994    0.21297998    0.27510977    0.26340000
opls_909-209    H    0.95812005    0.23055998    0.55549984    0.26330000
opls_144-210    H    0.63519994    0.12709990    0.87263052    0.11470000
opls_146-211    H    0.87629014    0.20461009    0.11216049    0.11160000
opls_146-212    H    0.80000989    0.21027004    0.14607978    0.11590000
opls_146-213    H    0.82162977    0.25225006    0.82039073    0.11460000
opls_146-214    H    0.89804002    0.24731006    0.78357972    0.10980000
opls_146-215    H    0.55933989    0.02690991    0.18511968    0.10580000
opls_146-216    H    0.61960003    0.06424989    0.21723079    0.10980000
opls_146-217    H    0.58287985    0.09336997    0.88973011    0.11290000
opls_146-218    H    0.52506005    0.05435002    0.86171961    0.11370000
opls_146-219    H    0.69700998    0.13457997    0.33131966    0.10720000
opls_146-220    H    0.74315011    0.18036005    0.24885078    0.11680000
opls_146-221    H    0.72056975    0.22329003    0.90574961    0.11360000
opls_146-222    H    0.67248992    0.17798001    0.98657000    0.10980000
opls_909-223    H    0.55093006    0.71297998    0.72489023    0.26330000
opls_909-224    H    0.54187995    0.73055998    0.44450016    0.26330000
opls_144-225    H    0.13519994    0.62709990    0.87263052    0.11470000
opls_146-226    H    0.37629014    0.70461009    0.11216049    0.11170000
opls_146-227    H    0.30000989    0.71027004    0.14607978    0.11600000
opls_146-228    H    0.32162977    0.75225006    0.82039073    0.11470000
opls_146-229    H    0.39804002    0.74731006    0.78357972    0.10980000
opls_146-230    H    0.05933989    0.52690991    0.18511968    0.10580000
opls_146-231    H    0.11960003    0.56424989    0.21723079    0.10980000
opls_146-232    H    0.08287985    0.59336997    0.88973011    0.11300000
opls_146-233    H    0.02506005    0.55435002    0.86171961    0.11370000
opls_146-234    H    0.19700998    0.63457997    0.33131966    0.10720000
opls_146-235    H    0.24315011    0.68036005    0.24885078    0.11690000
opls_146-236    H    0.22056975    0.72329003    0.90574961    0.11360000
opls_146-237    H    0.17248992    0.67798001    0.98657000    0.10980000
opls_909-238    H    0.05093006    0.21297998    0.72489023    0.26330000
opls_909-239    H    0.04187995    0.23055998    0.44450016    0.26330000
opls_144-240    H    0.63519994    0.87290010    0.87263052    0.11470000
opls_146-241    H    0.87629014    0.79538991    0.11216049    0.11160000
opls_146-242    H    0.80000989    0.78972996    0.14607978    0.11590000
opls_146-243    H    0.82162977    0.74774994    0.82039073    0.11460000
opls_146-244    H    0.89804002    0.75268994    0.78357972    0.10980000
opls_146-245    H    0.55933989    0.97309009    0.18511968    0.10580000
opls_146-246    H    0.61960003    0.93575011    0.21723079    0.10990000
opls_146-247    H    0.58287985    0.90663003    0.88973011    0.11290000
opls_146-248    H    0.52506005    0.94564998    0.86171961    0.11370000
opls_146-249    H    0.69700998    0.86542003    0.33131966    0.10720000
opls_146-250    H    0.74315011    0.81963995    0.24885078    0.11680000
opls_146-251    H    0.72056975    0.77670997    0.90574961    0.11360000
opls_146-252    H    0.67248992    0.82201999    0.98657000    0.10980000
opls_909-253    H    0.55093006    0.28702002    0.72489023    0.26330000
opls_909-254    H    0.54187995    0.26944002    0.44450016    0.26330000
opls_144-255    H    0.13519994    0.37290010    0.87263052    0.11470000
opls_146-256    H    0.37629014    0.29538991    0.11216049    0.11160000
opls_146-257    H    0.30000989    0.28972996    0.14607978    0.11600000
opls_146-258    H    0.32162977    0.24774994    0.82039073    0.11460000
opls_146-259    H    0.39804002    0.25268994    0.78357972    0.10980000
opls_146-260    H    0.05933989    0.47309009    0.18511968    0.10580000
opls_146-261    H    0.11960003    0.43575011    0.21723079    0.10980000
opls_146-262    H    0.08287985    0.40663003    0.88973011    0.11290000
opls_146-263    H    0.02506005    0.44564998    0.86171961    0.11370000
opls_146-264    H    0.19700998    0.36542003    0.33131966    0.10720000
opls_146-265    H    0.24315011    0.31963995    0.24885078    0.11680000
opls_146-266    H    0.22056975    0.27670997    0.90574961    0.11370000
opls_146-267    H    0.17248992    0.32201999    0.98657000    0.10980000
opls_909-268    H    0.05093006    0.78702002    0.72489023    0.26330000
opls_909-269    H    0.04187995    0.76944002    0.44450016    0.26330000
opls_144-270    H    0.36480006    0.87290010    0.12736948    0.11470000
opls_146-271    H    0.12370988    0.79538991    0.88784122    0.11160000
opls_146-272    H    0.19998980    0.78972996    0.85392022    0.11590000
opls_146-273    H    0.17836991    0.74774994    0.17960927    0.11460000
opls_146-274    H    0.10195998    0.75268994    0.21642028    0.10980000
opls_146-275    H    0.44065980    0.97309009    0.81488032    0.10580000
opls_146-276    H    0.38039998    0.93575011    0.78277093    0.10990000
opls_146-277    H    0.41711984    0.90663003    0.11026989    0.11290000
opls_146-278    H    0.47493995    0.94564998    0.13828039    0.11370000
opls_146-279    H    0.30299002    0.86542003    0.66868034    0.10720000
opls_146-280    H    0.25684991    0.81963995    0.75115093    0.11680000
opls_146-281    H    0.27942994    0.77670997    0.09425039    0.11360000
opls_146-282    H    0.32751008    0.82201999    0.01343000    0.10980000
opls_909-283    H    0.44906994    0.28702002    0.27510977    0.26340000
opls_909-284    H    0.45812005    0.26944002    0.55549984    0.26330000
opls_144-285    H    0.86480006    0.37290010    0.12736948    0.11470000
opls_146-286    H    0.62370988    0.29538991    0.88784122    0.11160000
opls_146-287    H    0.69998980    0.28972996    0.85392022    0.11590000
opls_146-288    H    0.67836991    0.24774994    0.17960927    0.11470000
opls_146-289    H    0.60195998    0.25268994    0.21642028    0.10980000
opls_146-290    H    0.94065980    0.47309009    0.81488032    0.10580000
opls_146-291    H    0.88039998    0.43575011    0.78277093    0.10980000
opls_146-292    H    0.91711984    0.40663003    0.11026989    0.11290000
opls_146-293    H    0.97493995    0.44564998    0.13828039    0.11370000
opls_146-294    H    0.80299002    0.36542003    0.66868034    0.10730000
opls_146-295    H    0.75684991    0.31963995    0.75115093    0.11680000
opls_146-296    H    0.77942994    0.27670997    0.09425039    0.11360000
opls_146-297    H    0.82751008    0.32201999    0.01343000    0.10980000
opls_909-298    H    0.94906994    0.78702002    0.27510977    0.26330000
opls_909-299    H    0.95812005    0.76944002    0.55549984    0.26330000
