#======================================================================
# Crystal Data Generated By AuToFF
#----------------------------------------------------------------------

data_AuToFF_phase_1

_cell_length_a                         49.7458
_cell_length_b                         43.8086
_cell_length_c                         3.8430
_cell_angle_alpha                      90.00
_cell_angle_beta                       91.27
_cell_angle_gamma                      90.00
_symmetry_space_group_name_H-M_alt     'P 1'
_symmetry_space_group_IT_number        1

loop_
_space_group_symop_operation_xyz
   'x, y, z'

loop_
   _atom_site_label
   _atom_site_type_symbol
   _atom_site_fract_x
   _atom_site_fract_y
   _atom_site_fract_z
   _atom_site_charge
opls_700-0    C    0.52487996    0.46737992    0.94215067    0.03250000
opls_145-1    C    0.54877993    0.48413006    0.86178993    -0.11760000
opls_700-2    C    0.47525001    0.43509996    0.01150948    0.02880000
opls_145-3    C    0.54965991    0.41554010    0.97833969    0.08650000
opls_145-4    C    0.55094002    0.38642002    0.81978111    -0.19790000
opls_145-5    C    0.57383001    0.36799008    0.81404979    -0.19760000
opls_145-6    C    0.59635009    0.37820999    0.96311084    0.11080000
opls_145-7    C    0.59526000    0.40713992    0.12006090    -0.19790000
opls_145-8    C    0.57198005    0.42504006    0.13811116    -0.19830000
opls_142-9    C    0.62187996    0.36038997    0.93843131    -0.07940000
opls_145-10    C    0.19761993    0.21784010    0.10173996    0.09230000
opls_700-11    C    0.22370992    0.23456992    0.11202093    -0.03440000
opls_700-12    C    0.27372996    0.26561999    0.12183079    -0.06440000
opls_700-13    C    0.29990994    0.28238999    0.11918117    0.06280000
opls_145-14    C    0.32393001    0.27082011    0.93527934    -0.10170000
opls_145-15    C    0.34834000    0.28629995    0.93615127    -0.11960000
opls_700-16    C    0.34944008    0.31439010    0.11034994    0.06100000
opls_145-17    C    0.32544999    0.32641993    0.28805976    -0.10170000
opls_145-18    C    0.30110002    0.31054998    0.29463958    -0.10360000
opls_141-19    C    0.37580005    0.33015002    0.11466014    0.00200000
opls_147-20    C    0.02283993    0.03256005    0.05872126    0.00540000
opls_145-21    C    0.02347004    0.06497994    0.03803959    0.00700000
opls_145-22    C    0.04407991    0.01586994    0.17004984    -0.19790000
opls_700-23    C    0.04827996    0.08362011    0.06650876    0.06270000
opls_145-24    C    0.07336991    0.07515990    0.88392134    -0.10140000
opls_145-25    C    0.09618997    0.09330999    0.89613097    -0.09600000
opls_700-26    C    0.09448992    0.12106002    0.07976991    0.11660000
opls_145-27    C    0.06953002    0.12956999    0.26528025    -0.10090000
opls_145-28    C    0.04671003    0.11125007    0.25556929    -0.10350000
opls_142-29    C    0.11956990    0.13926010    0.09000924    -0.15850000
opls_141-30    C    0.12150008    0.17009993    0.07897086    0.00320000
opls_145-31    C    0.14793010    0.18619997    0.08696920    0.07980000
opls_145-32    C    0.16909002    0.17296992    0.24280007    -0.19790000
opls_145-33    C    0.19346002    0.18852006    0.25012949    -0.19880000
opls_145-34    C    0.17656999    0.23089005    0.94334014    -0.19800000
opls_145-35    C    0.15213997    0.21554991    0.93958173    -0.19890000
opls_145-36    C    0.24941995    0.28185995    0.13260109    -0.29130000
opls_727-37    C    0.22478993    0.26672000    0.13612004    0.24200000
opls_145-38    C    0.24803003    0.21834001    0.10163064    -0.27830000
opls_727-39    C    0.27250994    0.23341992    0.11467055    0.29790000
opls_145-40    C    0.00002991    0.08043010    0.97478169    -0.13120000
opls_700-41    C    0.99999999    0.01632008    0.97550006    0.01390000
opls_700-42    C    0.50021001    0.48366006    0.96399058    -0.00460000
opls_145-43    C    0.49970004    0.41994996    0.03115004    -0.18420000
opls_145-44    C    0.45244996    0.48413006    0.92540961    -0.19790000
opls_700-45    C    0.47561003    0.46743995    0.97282961    0.02750000
opls_700-46    C    0.52471000    0.43496003    0.98263948    0.02040000
opls_700-47    C    0.45014002    0.41592998    0.03452063    0.05840000
opls_145-48    C    0.42611007    0.42454997    0.24265952    -0.10040000
opls_145-49    C    0.40290000    0.40657999    0.25550943    -0.10150000
opls_700-50    C    0.40339997    0.37860009    0.07751070    0.11700000
opls_145-51    C    0.42750996    0.36944002    0.87595164    -0.10040000
opls_145-52    C    0.45050997    0.38783002    0.85513983    -0.10110000
opls_142-53    C    0.37799005    0.36080998    0.08457985    -0.16670000
opls_145-54    C    0.97655996    0.06498998    0.91217970    0.01720000
opls_147-55    C    0.97715003    0.03256005    0.89229968    0.00540000
opls_145-56    C    0.95587996    0.01586994    0.78183001    -0.19790000
opls_700-57    C    0.95177010    0.08365001    0.88380162    0.06270000
opls_145-58    C    0.95335004    0.11124003    0.69390039    -0.10150000
opls_145-59    C    0.93058992    0.12964989    0.68522013    -0.10090000
opls_700-60    C    0.90566001    0.12134992    0.87345037    0.11710000
opls_145-61    C    0.90394004    0.09359007    0.05731055    -0.09870000
opls_145-62    C    0.92670005    0.07531010    0.06779974    -0.10110000
opls_142-63    C    0.88062998    0.13974996    0.86690178    -0.13610000
opls_141-64    C    0.87892005    0.17062997    0.87367942    0.00180000
opls_145-65    C    0.85251999    0.18701990    0.87083979    0.07770000
opls_145-66    C    0.84925996    0.21714001    0.00019000    -0.19800000
opls_145-67    C    0.82496008    0.23282004    0.99998959    -0.19790000
opls_145-68    C    0.80293005    0.21894993    0.87317187    0.09090000
opls_145-69    C    0.80598999    0.18903001    0.74167176    -0.19800000
opls_145-70    C    0.83045003    0.17339997    0.73703101    -0.19790000
opls_700-71    C    0.77673994    0.23539008    0.88292188    -0.10020000
opls_727-72    C    0.77558990    0.26626005    0.78225947    0.23180000
opls_145-73    C    0.75082996    0.28132992    0.79675173    -0.22500000
opls_700-74    C    0.72658007    0.26617993    0.91312190    -0.10080000
opls_727-75    C    0.72775004    0.23530996    0.01427103    0.23180000
opls_145-76    C    0.75251001    0.22020996    0.99827176    -0.22500000
opls_145-77    C    0.70039996    0.28277005    0.92917063    0.07280000
opls_145-78    C    0.69776994    0.31286003    0.05746932    -0.17630000
opls_145-79    C    0.67319006    0.32839990    0.07498080    -0.19830000
opls_145-80    C    0.65055992    0.31430998    0.96266056    0.07690000
opls_145-81    C    0.65331999    0.28428003    0.83259978    -0.17630000
opls_145-82    C    0.67785005    0.26878010    0.81546050    -0.19790000
opls_141-83    C    0.62384999    0.32997996    0.99129111    0.01650000
opls_423-84    C    0.90249008    0.18869994    0.91329108    0.18240000
opls_423-85    C    0.60011001    0.31167990    0.09260941    0.22840000
opls_423-86    C    0.39876995    0.31158996    0.16747049    0.26960000
opls_423-87    C    0.09821009    0.18835000    0.03069976    0.26730000
opls_700-88    C    0.52487996    0.53262008    0.94215067    0.03250000
opls_145-89    C    0.54877993    0.51586994    0.86178993    -0.11760000
opls_700-90    C    0.47525001    0.56490004    0.01150948    0.02880000
opls_145-91    C    0.54965991    0.58445990    0.97833969    0.08650000
opls_145-92    C    0.55094002    0.61357998    0.81978111    -0.19790000
opls_145-93    C    0.57383001    0.63200992    0.81404979    -0.19760000
opls_145-94    C    0.59635009    0.62179001    0.96311084    0.11070000
opls_145-95    C    0.59526000    0.59286008    0.12006090    -0.19790000
opls_145-96    C    0.57198005    0.57495994    0.13811116    -0.19830000
opls_142-97    C    0.62187996    0.63961003    0.93843131    -0.07940000
opls_145-98    C    0.19761993    0.78215990    0.10173996    0.09230000
opls_700-99    C    0.22370992    0.76543008    0.11202093    -0.03440000
opls_700-100    C    0.27372996    0.73438001    0.12183079    -0.06440000
opls_700-101    C    0.29990994    0.71761001    0.11918117    0.06280000
opls_145-102    C    0.32393001    0.72917989    0.93527934    -0.10170000
opls_145-103    C    0.34834000    0.71370005    0.93615127    -0.11960000
opls_700-104    C    0.34944008    0.68560990    0.11034994    0.06100000
opls_145-105    C    0.32544999    0.67358007    0.28805976    -0.10170000
opls_145-106    C    0.30110002    0.68945002    0.29463958    -0.10360000
opls_141-107    C    0.37580005    0.66984998    0.11466014    0.00200000
opls_147-108    C    0.02283993    0.96743995    0.05872126    0.00540000
opls_145-109    C    0.02347004    0.93502006    0.03803959    0.00700000
opls_145-110    C    0.04407991    0.98413006    0.17004984    -0.19790000
opls_700-111    C    0.04827996    0.91637989    0.06650876    0.06270000
opls_145-112    C    0.07336991    0.92484010    0.88392134    -0.10140000
opls_145-113    C    0.09618997    0.90669001    0.89613097    -0.09600000
opls_700-114    C    0.09448992    0.87893998    0.07976991    0.11660000
opls_145-115    C    0.06953002    0.87043001    0.26528025    -0.10090000
opls_145-116    C    0.04671003    0.88874993    0.25556929    -0.10360000
opls_142-117    C    0.11956990    0.86073990    0.09000924    -0.15850000
opls_141-118    C    0.12150008    0.82990007    0.07897086    0.00320000
opls_145-119    C    0.14793010    0.81380003    0.08696920    0.07980000
opls_145-120    C    0.16909002    0.82703008    0.24280007    -0.19790000
opls_145-121    C    0.19346002    0.81147994    0.25012949    -0.19890000
opls_145-122    C    0.17656999    0.76910995    0.94334014    -0.19790000
opls_145-123    C    0.15213997    0.78445009    0.93958173    -0.19890000
opls_145-124    C    0.24941995    0.71814005    0.13260109    -0.29130000
opls_727-125    C    0.22478993    0.73328000    0.13612004    0.24200000
opls_145-126    C    0.24803003    0.78165999    0.10163064    -0.27830000
opls_727-127    C    0.27250994    0.76658008    0.11467055    0.29790000
opls_145-128    C    0.00002991    0.91956990    0.97478169    -0.13110000
opls_700-129    C    0.99999999    0.98367992    0.97550006    0.01390000
opls_700-130    C    0.50021001    0.51633994    0.96399058    -0.00460000
opls_145-131    C    0.49970004    0.58005004    0.03115004    -0.18420000
opls_145-132    C    0.45244996    0.51586994    0.92540961    -0.19790000
opls_700-133    C    0.47561003    0.53256005    0.97282961    0.02750000
opls_700-134    C    0.52471000    0.56503997    0.98263948    0.02040000
opls_700-135    C    0.45014002    0.58407002    0.03452063    0.05850000
opls_145-136    C    0.42611007    0.57545003    0.24265952    -0.10040000
opls_145-137    C    0.40290000    0.59342001    0.25550943    -0.10150000
opls_700-138    C    0.40339997    0.62139991    0.07751070    0.11700000
opls_145-139    C    0.42750996    0.63055998    0.87595164    -0.10040000
opls_145-140    C    0.45050997    0.61216998    0.85513983    -0.10110000
opls_142-141    C    0.37799005    0.63919002    0.08457985    -0.16670000
opls_145-142    C    0.97655996    0.93501002    0.91217970    0.01720000
opls_147-143    C    0.97715003    0.96743995    0.89229968    0.00540000
opls_145-144    C    0.95587996    0.98413006    0.78183001    -0.19790000
opls_700-145    C    0.95177010    0.91634999    0.88380162    0.06270000
opls_145-146    C    0.95335004    0.88875997    0.69390039    -0.10150000
opls_145-147    C    0.93058992    0.87035011    0.68522013    -0.10090000
opls_700-148    C    0.90566001    0.87865008    0.87345037    0.11710000
opls_145-149    C    0.90394004    0.90640993    0.05731055    -0.09870000
opls_145-150    C    0.92670005    0.92468990    0.06779974    -0.10110000
opls_142-151    C    0.88062998    0.86025004    0.86690178    -0.13610000
opls_141-152    C    0.87892005    0.82937003    0.87367942    0.00180000
opls_145-153    C    0.85251999    0.81298010    0.87083979    0.07770000
opls_145-154    C    0.84925996    0.78285999    0.00019000    -0.19800000
opls_145-155    C    0.82496008    0.76717996    0.99998959    -0.19790000
opls_145-156    C    0.80293005    0.78105007    0.87317187    0.09090000
opls_145-157    C    0.80598999    0.81096999    0.74167176    -0.19800000
opls_145-158    C    0.83045003    0.82660003    0.73703101    -0.19790000
opls_700-159    C    0.77673994    0.76460992    0.88292188    -0.10020000
opls_727-160    C    0.77558990    0.73373995    0.78225947    0.23180000
opls_145-161    C    0.75082996    0.71867008    0.79675173    -0.22500000
opls_700-162    C    0.72658007    0.73382007    0.91312190    -0.10080000
opls_727-163    C    0.72775004    0.76469004    0.01427103    0.23190000
opls_145-164    C    0.75251001    0.77979004    0.99827176    -0.22500000
opls_145-165    C    0.70039996    0.71722995    0.92917063    0.07280000
opls_145-166    C    0.69776994    0.68713997    0.05746932    -0.17630000
opls_145-167    C    0.67319006    0.67160010    0.07498080    -0.19820000
opls_145-168    C    0.65055992    0.68569002    0.96266056    0.07700000
opls_145-169    C    0.65331999    0.71571997    0.83259978    -0.17630000
opls_145-170    C    0.67785005    0.73121990    0.81546050    -0.19790000
opls_141-171    C    0.62384999    0.67002004    0.99129111    0.01650000
opls_423-172    C    0.90249008    0.81130006    0.91329108    0.18240000
opls_423-173    C    0.60011001    0.68832010    0.09260941    0.22850000
opls_423-174    C    0.39876995    0.68841004    0.16747049    0.26960000
opls_423-175    C    0.09821009    0.81165000    0.03069976    0.26730000
opls_719-176    F    0.20205007    0.28382007    0.17488060    -0.13660000
opls_719-177    F    0.29476994    0.21618997    0.13133093    -0.08150000
opls_719-178    F    0.79831997    0.28180996    0.66184979    -0.16220000
opls_719-179    F    0.70506991    0.21987007    0.13942036    -0.16290000
opls_719-180    F    0.20205007    0.71617993    0.17488060    -0.13660000
opls_719-181    F    0.29476994    0.78381003    0.13133093    -0.08140000
opls_719-182    F    0.79831997    0.71819004    0.66184979    -0.16220000
opls_719-183    F    0.70506991    0.78012993    0.13942036    -0.16290000
opls_753-184    N    0.92129004    0.20320006    0.94585963    -0.34760000
opls_753-185    N    0.58116992    0.29694991    0.17394100    -0.29480000
opls_753-186    N    0.41709991    0.29668992    0.21046056    -0.33990000
opls_753-187    N    0.07963999    0.20299005    0.99127029    -0.34060000
opls_753-188    N    0.92129004    0.79679994    0.94585963    -0.34760000
opls_753-189    N    0.58116992    0.70305009    0.17394100    -0.29480000
opls_753-190    N    0.41709991    0.70331008    0.21046056    -0.33990000
opls_753-191    N    0.07963999    0.79700995    0.99127029    -0.34070000
opls_146-192    H    0.56794992    0.47320001    0.79201989    0.11580000
opls_146-193    H    0.53454991    0.37817004    0.68807017    0.23740000
opls_146-194    H    0.61225005    0.41558005    0.23882042    0.23720000
opls_146-195    H    0.57149995    0.44626010    0.28023061    0.11500000
opls_144-196    H    0.64018001    0.37357003    0.88007184    0.11590000
opls_146-197    H    0.32393992    0.25016001    0.78143960    0.11650000
opls_146-198    H    0.36635992    0.27658998    0.79242071    0.03820000
opls_146-199    H    0.32562993    0.34757011    0.43339103    0.11300000
opls_146-200    H    0.28335003    0.32008008    0.44607957    0.03820000
opls_146-201    H    0.06083999    0.02710997    0.26490025    0.23730000
opls_146-202    H    0.07533007    0.05468995    0.72594058    0.10520000
opls_146-203    H    0.11516993    0.08600001    0.75331138    0.03820000
opls_146-204    H    0.06768004    0.14982994    0.42737080    0.10280000
opls_146-205    H    0.02788004    0.11852992    0.40155906    0.03820000
opls_144-206    H    0.13781990    0.12598006    0.08240132    0.11580000
opls_146-207    H    0.16667007    0.15101989    0.37180151    0.10210000
opls_146-208    H    0.20867000    0.17782992    0.38422977    0.23730000
opls_146-209    H    0.17910002    0.25263989    0.81042933    0.10300000
opls_146-210    H    0.13678996    0.22651991    0.81022111    0.23720000
opls_146-211    H    0.24929996    0.30655008    0.13788993    0.11300000
opls_146-212    H    0.24829003    0.19370010    0.08292969    0.11570000
opls_146-213    H    0.00004006    0.10513004    0.97437045    0.11320000
opls_146-214    H    0.49919001    0.39565998    0.08386929    0.11450000
opls_146-215    H    0.43394998    0.47306990    0.88431957    0.23710000
opls_146-216    H    0.42520003    0.44516990    0.39757942    0.11010000
opls_146-217    H    0.38458999    0.41423008    0.41224086    0.03790000
opls_146-218    H    0.42833008    0.34875002    0.72122955    0.11060000
opls_146-219    H    0.46846991    0.38041001    0.68932992    0.03770000
opls_144-220    H    0.35996997    0.37405989    0.06754988    0.23780000
opls_146-221    H    0.93909999    0.02712002    0.68757044    0.23720000
opls_146-222    H    0.97217007    0.11841008    0.54655978    0.03820000
opls_146-223    H    0.93244995    0.14982994    0.52184120    0.10270000
opls_146-224    H    0.88497996    0.08639993    0.20199112    0.03790000
opls_146-225    H    0.92471991    0.05486000    0.22619955    0.10400000
opls_144-226    H    0.86228998    0.12657994    0.88169076    0.11610000
opls_146-227    H    0.86538001    0.22866994    0.10865033    0.23720000
opls_146-228    H    0.82326991    0.25563999    0.10770032    0.10970000
opls_146-229    H    0.78957997    0.17792009    0.63467940    0.23720000
opls_146-230    H    0.83202007    0.15091010    0.62058016    0.10870000
opls_146-231    H    0.75060000    0.30488009    0.71167996    0.11600000
opls_146-232    H    0.75276003    0.19667006    0.08379121    0.11310000
opls_146-233    H    0.71459005    0.32414001    0.15298083    0.23710000
opls_146-234    H    0.67174996    0.35111006    0.18655926    0.10810000
opls_146-235    H    0.63647000    0.27280009    0.73994092    0.23740000
opls_146-236    H    0.67922993    0.24593002    0.70803087    0.11020000
opls_146-237    H    0.57426997    0.34638998    0.67783085    0.11570000
opls_146-238    H    0.56794992    0.52679999    0.79201989    0.11580000
opls_146-239    H    0.53454991    0.62182996    0.68807017    0.23740000
opls_146-240    H    0.61225005    0.58441995    0.23882042    0.23720000
opls_146-241    H    0.57149995    0.55373990    0.28023061    0.11500000
opls_144-242    H    0.64018001    0.62642997    0.88007184    0.11590000
opls_146-243    H    0.32393992    0.74983999    0.78143960    0.11650000
opls_146-244    H    0.36635992    0.72341002    0.79242071    0.03820000
opls_146-245    H    0.32562993    0.65242989    0.43339103    0.11300000
opls_146-246    H    0.28335003    0.67991992    0.44607957    0.03820000
opls_146-247    H    0.06083999    0.97289003    0.26490025    0.23720000
opls_146-248    H    0.07533007    0.94531005    0.72594058    0.10520000
opls_146-249    H    0.11516993    0.91399999    0.75331138    0.03820000
opls_146-250    H    0.06768004    0.85017006    0.42737080    0.10280000
opls_146-251    H    0.02788004    0.88147008    0.40155906    0.03820000
opls_144-252    H    0.13781990    0.87401994    0.08240132    0.11580000
opls_146-253    H    0.16667007    0.84898011    0.37180151    0.10210000
opls_146-254    H    0.20867000    0.82217008    0.38422977    0.23740000
opls_146-255    H    0.17910002    0.74736011    0.81042933    0.10300000
opls_146-256    H    0.13678996    0.77348009    0.81022111    0.23720000
opls_146-257    H    0.24929996    0.69344992    0.13788993    0.11300000
opls_146-258    H    0.24829003    0.80629990    0.08292969    0.11570000
opls_146-259    H    0.00004006    0.89486996    0.97437045    0.11320000
opls_146-260    H    0.49919001    0.60434002    0.08386929    0.11450000
opls_146-261    H    0.43394998    0.52693010    0.88431957    0.23710000
opls_146-262    H    0.42520003    0.55483010    0.39757942    0.11020000
opls_146-263    H    0.38458999    0.58576992    0.41224086    0.03790000
opls_146-264    H    0.42833008    0.65124998    0.72122955    0.11060000
opls_146-265    H    0.46846991    0.61958999    0.68932992    0.03770000
opls_144-266    H    0.35996997    0.62594011    0.06754988    0.23780000
opls_146-267    H    0.93909999    0.97287998    0.68757044    0.23720000
opls_146-268    H    0.97217007    0.88158992    0.54655978    0.03820000
opls_146-269    H    0.93244995    0.85017006    0.52184120    0.10270000
opls_146-270    H    0.88497996    0.91360007    0.20199112    0.03790000
opls_146-271    H    0.92471991    0.94514000    0.22619955    0.10390000
opls_144-272    H    0.86228998    0.87342006    0.88169076    0.11610000
opls_146-273    H    0.86538001    0.77133006    0.10865033    0.23720000
opls_146-274    H    0.82326991    0.74436001    0.10770032    0.10970000
opls_146-275    H    0.78957997    0.82207991    0.63467940    0.23730000
opls_146-276    H    0.83202007    0.84908990    0.62058016    0.10870000
opls_146-277    H    0.75060000    0.69511991    0.71167996    0.11600000
opls_146-278    H    0.75276003    0.80332994    0.08379121    0.11310000
opls_146-279    H    0.71459005    0.67585999    0.15298083    0.23710000
opls_146-280    H    0.67174996    0.64888994    0.18655926    0.10810000
opls_146-281    H    0.63647000    0.72719991    0.73994092    0.23730000
opls_146-282    H    0.67922993    0.75406998    0.70803087    0.11020000
opls_146-283    H    0.57426997    0.65361002    0.67783085    0.11570000
