#======================================================================
# Crystal Data Generated By AuToFF
#----------------------------------------------------------------------

data_AuToFF_phase_1

_cell_length_a                         29.4645
_cell_length_b                         29.4645
_cell_length_c                         12.9557
_cell_angle_alpha                      90.00
_cell_angle_beta                       90.00
_cell_angle_gamma                      90.00
_symmetry_space_group_name_H-M_alt     'P 1'
_symmetry_space_group_IT_number        1

loop_
_space_group_symop_operation_xyz
   'x, y, z'

loop_
   _atom_site_label
   _atom_site_type_symbol
   _atom_site_fract_x
   _atom_site_fract_y
   _atom_site_fract_z
   _atom_site_charge
opls_542-0    N    0.50520016    0.04249996    0.98259994    -0.36950000
opls_542-1    N    0.45240001    0.45039997    0.84380003    -0.27330000
opls_750-2    N    0.50310000    0.19050009    0.86640012    -0.31650000
opls_542-3    N    0.49479984    0.95750004    0.98259994    -0.36950000
opls_542-4    N    0.54759999    0.54960003    0.84380003    -0.27330000
opls_750-5    N    0.49690000    0.80949991    0.86640012    -0.31650000
opls_542-6    N    0.95750004    0.50520016    0.98259994    -0.36950000
opls_542-7    N    0.54960003    0.45240001    0.84380003    -0.27330000
opls_750-8    N    0.80949991    0.50310000    0.86640012    -0.31650000
opls_542-9    N    0.04249996    0.49479984    0.98259994    -0.36950000
opls_542-10    N    0.45039997    0.54759999    0.84380003    -0.27330000
opls_750-11    N    0.19050009    0.49690000    0.86640012    -0.31650000
opls_543-12    C    0.50529994    0.04310000    0.87840024    0.20560000
opls_543-13    C    0.51089990    0.08570008    0.01549974    0.23150000
opls_700-14    C    0.51470006    0.11459994    0.93120017    -0.03530000
opls_700-15    C    0.51149994    0.08749987    0.84320029    0.06080000
opls_142-16    C    0.52070016    0.16430009    0.93640019    0.07500000
opls_135-17    C    0.51160006    0.09950008    0.12749986    -0.43680000
opls_701-18    C    0.51720002    0.10249996    0.73309972    -0.41540000
opls_716-19    C    0.38529994    0.41380000    0.84549966    -0.18550000
opls_716-20    C    0.41849989    0.38189991    0.84570035    -0.18560000
opls_507-21    C    0.45959986    0.40490013    0.84329986    0.19860000
opls_507-22    C    0.40669993    0.45569991    0.84610017    0.19890000
opls_700-23    C    0.50239984    0.38299988    0.84579992    -0.06040000
opls_700-24    C    0.50340002    0.33500008    0.85099995    0.09690000
opls_145-25    C    0.48609988    0.30850006    0.77000008    -0.12070000
opls_145-26    C    0.48660015    0.26109997    0.77649992    -0.15490000
opls_145-27    C    0.50439987    0.23929984    0.86350024    0.20640000
opls_145-28    C    0.52189991    0.26579986    0.94489993    -0.15770000
opls_145-29    C    0.52139999    0.31319995    0.93840009    -0.12190000
opls_145-30    C    0.00930001    0.54010012    0.64660034    -0.11030000
opls_145-31    C    0.00930001    0.54010012    0.53870034    -0.14670000
opls_543-32    C    0.49470006    0.95690000    0.87840024    0.20560000
opls_543-33    C    0.48910010    0.91429992    0.01549974    0.23150000
opls_700-34    C    0.48529994    0.88540006    0.93120017    -0.03530000
opls_700-35    C    0.48850006    0.91250013    0.84320029    0.06080000
opls_142-36    C    0.47929984    0.83569991    0.93640019    0.07500000
opls_135-37    C    0.48839994    0.90049992    0.12749986    -0.43680000
opls_701-38    C    0.48279998    0.89750004    0.73309972    -0.41540000
opls_716-39    C    0.61470006    0.58620000    0.84549966    -0.18550000
opls_716-40    C    0.58150011    0.61810009    0.84570035    -0.18560000
opls_507-41    C    0.54040014    0.59509987    0.84329986    0.19860000
opls_507-42    C    0.59330007    0.54430009    0.84610017    0.19890000
opls_700-43    C    0.49760016    0.61700012    0.84579992    -0.06040000
opls_700-44    C    0.49659998    0.66499992    0.85099995    0.09690000
opls_145-45    C    0.51390012    0.69149994    0.77000008    -0.12070000
opls_145-46    C    0.51339985    0.73890003    0.77649992    -0.15490000
opls_145-47    C    0.49560013    0.76070016    0.86350024    0.20640000
opls_145-48    C    0.47810009    0.73420014    0.94489993    -0.15770000
opls_145-49    C    0.47860001    0.68680005    0.93840009    -0.12190000
opls_145-50    C    0.99069999    0.45989988    0.64660034    -0.11030000
opls_145-51    C    0.99069999    0.45989988    0.53870034    -0.14670000
opls_543-52    C    0.95690000    0.50529994    0.87840024    0.20560000
opls_543-53    C    0.91429992    0.51089990    0.01549974    0.23150000
opls_700-54    C    0.88540006    0.51470006    0.93120017    -0.03530000
opls_700-55    C    0.91250013    0.51149994    0.84320029    0.06080000
opls_142-56    C    0.83569991    0.52070016    0.93640019    0.07500000
opls_135-57    C    0.90049992    0.51160006    0.12749986    -0.43680000
opls_701-58    C    0.89750004    0.51720002    0.73309972    -0.41530000
opls_716-59    C    0.58620000    0.38529994    0.84549966    -0.18550000
opls_716-60    C    0.61810009    0.41849989    0.84570035    -0.18560000
opls_507-61    C    0.59509987    0.45959986    0.84329986    0.19860000
opls_507-62    C    0.54430009    0.40669993    0.84610017    0.19890000
opls_700-63    C    0.61700012    0.50239984    0.84579992    -0.06030000
opls_700-64    C    0.66499992    0.50340002    0.85099995    0.09690000
opls_145-65    C    0.69149994    0.48609988    0.77000008    -0.12070000
opls_145-66    C    0.73890003    0.48660015    0.77649992    -0.15490000
opls_145-67    C    0.76070016    0.50439987    0.86350024    0.20650000
opls_145-68    C    0.73420014    0.52189991    0.94489993    -0.15770000
opls_145-69    C    0.68680005    0.52139999    0.93840009    -0.12190000
opls_145-70    C    0.45989988    0.00930001    0.64660034    -0.11030000
opls_145-71    C    0.45989988    0.00930001    0.53870034    -0.14670000
opls_543-72    C    0.04310000    0.49470006    0.87840024    0.20560000
opls_543-73    C    0.08570008    0.48910010    0.01549974    0.23150000
opls_700-74    C    0.11459994    0.48529994    0.93120017    -0.03530000
opls_700-75    C    0.08749987    0.48850006    0.84320029    0.06080000
opls_142-76    C    0.16430009    0.47929984    0.93640019    0.07500000
opls_135-77    C    0.09950008    0.48839994    0.12749986    -0.43680000
opls_701-78    C    0.10249996    0.48279998    0.73309972    -0.41540000
opls_716-79    C    0.41380000    0.61470006    0.84549966    -0.18550000
opls_716-80    C    0.38189991    0.58150011    0.84570035    -0.18560000
opls_507-81    C    0.40490013    0.54040014    0.84329986    0.19860000
opls_507-82    C    0.45569991    0.59330007    0.84610017    0.19900000
opls_700-83    C    0.38299988    0.49760016    0.84579992    -0.06040000
opls_700-84    C    0.33500008    0.49659998    0.85099995    0.09690000
opls_145-85    C    0.30850006    0.51390012    0.77000008    -0.12070000
opls_145-86    C    0.26109997    0.51339985    0.77649992    -0.15480000
opls_145-87    C    0.23929984    0.49560013    0.86350024    0.20650000
opls_145-88    C    0.26579986    0.47810009    0.94489993    -0.15770000
opls_145-89    C    0.31319995    0.47860001    0.93840009    -0.12190000
opls_145-90    C    0.54010012    0.99069999    0.64660034    -0.11030000
opls_145-91    C    0.54010012    0.99069999    0.53870034    -0.14670000
opls_700-92    C    0.00000000    0.50000000    0.81639973    -0.11960000
opls_700-93    C    0.00000000    0.50000000    0.70089999    0.07380000
opls_263-94    C    0.00000000    0.50000000    0.48470017    0.14230000
opls_700-95    C    0.50000000    0.00000000    0.81639973    -0.11960000
opls_700-96    C    0.50000000    0.00000000    0.70089999    0.07380000
opls_263-97    C    0.50000000    0.00000000    0.48470017    0.14230000
MOF2_F_-98    F    0.00480001    0.53909993    0.11320037    -0.62240000
MOF2_F_-99    F    0.99519999    0.46090007    0.11320037    -0.62250000
MOF2_F_-100    F    0.46090007    0.00480001    0.11320037    -0.62240000
MOF2_F_-101    F    0.53909993    0.99519999    0.11320037    -0.62250000
opls_144-102    H    0.53849989    0.17819987    0.00179998    0.10710000
opls_140-103    H    0.51459994    0.13670010    0.13730018    0.11190000
opls_140-104    H    0.54070016    0.08310000    0.16690028    0.18290000
opls_140-105    H    0.47959986    0.08859984    0.16530022    0.18240000
opls_702-106    H    0.48490013    0.09789985    0.69060028    0.18390000
opls_702-107    H    0.54460011    0.08260008    0.69589987    0.18380000
opls_702-108    H    0.52729997    0.13860001    0.72740029    0.11270000
opls_547-109    H    0.34930001    0.40660015    0.84489993    0.12550000
opls_547-110    H    0.41259991    0.34570008    0.84849989    0.12870000
opls_146-111    H    0.47229989    0.32439987    0.70140016    0.12730000
opls_146-112    H    0.47289993    0.24120009    0.71340028    0.12380000
opls_146-113    H    0.53539989    0.25080012    0.01430027    0.11850000
opls_146-114    H    0.53450016    0.33289993    0.00239972    0.12370000
opls_146-115    H    0.01649986    0.57119992    0.68790031    0.12560000
opls_146-116    H    0.01649986    0.57110014    0.49719969    0.12950000
opls_144-117    H    0.46150011    0.82180013    0.00179998    0.10710000
opls_140-118    H    0.48540006    0.86329990    0.13730018    0.11190000
opls_140-119    H    0.45929984    0.91690000    0.16690028    0.18290000
opls_140-120    H    0.52040014    0.91140016    0.16530022    0.18240000
opls_702-121    H    0.51509987    0.90210015    0.69060028    0.18390000
opls_702-122    H    0.45539989    0.91739992    0.69589987    0.18380000
opls_702-123    H    0.47270003    0.86139999    0.72740029    0.11270000
opls_547-124    H    0.65069999    0.59339985    0.84489993    0.12550000
opls_547-125    H    0.58740009    0.65429992    0.84849989    0.12860000
opls_146-126    H    0.52770011    0.67560013    0.70140016    0.12730000
opls_146-127    H    0.52710007    0.75879991    0.71340028    0.12390000
opls_146-128    H    0.46460011    0.74919988    0.01430027    0.11850000
opls_146-129    H    0.46549984    0.66710007    0.00239972    0.12370000
opls_146-130    H    0.98350014    0.42880008    0.68790031    0.12560000
opls_146-131    H    0.98350014    0.42889986    0.49719969    0.12950000
opls_144-132    H    0.82180013    0.53849989    0.00179998    0.10710000
opls_140-133    H    0.86329990    0.51459994    0.13730018    0.11190000
opls_140-134    H    0.91690000    0.54070016    0.16690028    0.18290000
opls_140-135    H    0.91140016    0.47959986    0.16530022    0.18240000
opls_702-136    H    0.90210015    0.48490013    0.69060028    0.18390000
opls_702-137    H    0.91739992    0.54460011    0.69589987    0.18380000
opls_702-138    H    0.86139999    0.52729997    0.72740029    0.11270000
opls_547-139    H    0.59339985    0.34930001    0.84489993    0.12550000
opls_547-140    H    0.65429992    0.41259991    0.84849989    0.12860000
opls_146-141    H    0.67560013    0.47229989    0.70140016    0.12730000
opls_146-142    H    0.75879991    0.47289993    0.71340028    0.12380000
opls_146-143    H    0.74919988    0.53539989    0.01430027    0.11850000
opls_146-144    H    0.66710007    0.53450016    0.00239972    0.12370000
opls_146-145    H    0.42880008    0.01649986    0.68790031    0.12560000
opls_146-146    H    0.42889986    0.01649986    0.49719969    0.12950000
opls_144-147    H    0.17819987    0.46150011    0.00179998    0.10710000
opls_140-148    H    0.13670010    0.48540006    0.13730018    0.11190000
opls_140-149    H    0.08310000    0.45929984    0.16690028    0.18300000
opls_140-150    H    0.08859984    0.52040014    0.16530022    0.18240000
opls_702-151    H    0.09789985    0.51509987    0.69060028    0.18390000
opls_702-152    H    0.08260008    0.45539989    0.69589987    0.18380000
opls_702-153    H    0.13860001    0.47270003    0.72740029    0.11270000
opls_547-154    H    0.40660015    0.65069999    0.84489993    0.12550000
opls_547-155    H    0.34570008    0.58740009    0.84849989    0.12860000
opls_146-156    H    0.32439987    0.52770011    0.70140016    0.12730000
opls_146-157    H    0.24120009    0.52710007    0.71340028    0.12380000
opls_146-158    H    0.25080012    0.46460011    0.01430027    0.11850000
opls_146-159    H    0.33289993    0.46549984    0.00239972    0.12370000
opls_146-160    H    0.57119992    0.98350014    0.68790031    0.12560000
opls_146-161    H    0.57110014    0.98350014    0.49719969    0.12950000
MOF2_B_3-162    B    0.00000000    0.50000000    0.04990004    0.72650000
MOF2_B_3-163    B    0.50000000    0.00000000    0.04990004    0.72640000
opls_264-164    Cl    0.00000000    0.50000000    0.34939988    -0.07930000
opls_264-165    Cl    0.50000000    0.00000000    0.34939988    -0.07930000
