#======================================================================
# Crystal Data Generated By AuToFF
#----------------------------------------------------------------------

data_AuToFF_phase_1

_cell_length_a                         24.9000
_cell_length_b                         24.9000
_cell_length_c                         6.6000
_cell_angle_alpha                      90.00
_cell_angle_beta                       90.00
_cell_angle_gamma                      120.00
_symmetry_space_group_name_H-M_alt     'P 1'
_symmetry_space_group_IT_number        1

loop_
_space_group_symop_operation_xyz
   'x, y, z'

loop_
   _atom_site_label
   _atom_site_type_symbol
   _atom_site_fract_x
   _atom_site_fract_y
   _atom_site_fract_z
   _atom_site_charge
opls_521-0    C    0.33321022    0.60996020    0.01886970    0.06970000
opls_521-1    C    0.39003994    0.66678028    0.01886061    0.06520000
opls_521-2    C    0.38826989    0.55502010    0.04066061    0.17870000
opls_521-3    C    0.44496011    0.61170013    0.04065000    0.17870000
opls_521-4    C    0.66677005    0.39003006    0.17801970    0.06520000
opls_521-5    C    0.60994992    0.33320024    0.17801970    0.06520000
opls_521-6    C    0.61168997    0.44495022    0.15620000    0.17870000
opls_521-7    C    0.55500991    0.38825999    0.15618030    0.17850000
opls_521-8    C    0.50102020    0.55569019    0.07775000    0.17910000
opls_521-9    C    0.44427012    0.49894987    0.07771970    0.17850000
opls_521-10    C    0.49895017    0.44426019    0.11901970    0.17910000
opls_521-11    C    0.55569026    0.50101025    0.11908030    0.17910000
opls_522-12    C    0.50117991    0.61186986    0.05798030    -0.15460000
opls_522-13    C    0.38809012    0.49878988    0.05796970    -0.15460000
opls_522-14    C    0.49878019    0.38808006    0.13880000    -0.15460000
opls_522-15    C    0.61187026    0.50117024    0.13886061    -0.15420000
opls_521-16    C    0.99988008    0.94329028    0.35220000    0.06970000
opls_521-17    C    0.05670997    0.00010991    0.35218939    0.06520000
opls_521-18    C    0.05494015    0.88835018    0.37398939    0.17870000
opls_521-19    C    0.11162997    0.94503022    0.37398030    0.17870000
opls_521-20    C    0.33343991    0.72336015    0.51135000    0.06520000
opls_521-21    C    0.27661995    0.66652986    0.51135000    0.06520000
opls_521-22    C    0.27836024    0.77828031    0.48953030    0.17870000
opls_521-23    C    0.22168018    0.72159007    0.48951061    0.17850000
opls_521-24    C    0.16769006    0.88902028    0.41108030    0.17910000
opls_521-25    C    0.11093998    0.83227996    0.41105000    0.17850000
opls_521-26    C    0.16562004    0.77759027    0.45235000    0.17910000
opls_521-27    C    0.22235990    0.83433987    0.45241061    0.17910000
opls_522-28    C    0.16784977    0.94519995    0.39131061    -0.15460000
opls_522-29    C    0.05475999    0.83211997    0.39130000    -0.15460000
opls_522-30    C    0.16545005    0.72141014    0.47213030    -0.15460000
opls_522-31    C    0.27854012    0.83450032    0.47218939    -0.15420000
opls_521-32    C    0.66653995    0.27663011    0.68553939    0.06970000
opls_521-33    C    0.72337008    0.33345019    0.68553030    0.06520000
opls_521-34    C    0.72160002    0.22169001    0.70733030    0.17870000
opls_521-35    C    0.77828984    0.27837004    0.70731970    0.17870000
opls_521-36    C    0.00010019    0.05669998    0.84468939    0.06520000
opls_521-37    C    0.94328006    0.99987015    0.84468939    0.06520000
opls_521-38    C    0.94502011    0.11162014    0.82286970    0.17870000
opls_521-39    C    0.88834005    0.05492990    0.82285000    0.17850000
opls_521-40    C    0.83434993    0.22236011    0.74441970    0.17910000
opls_521-41    C    0.77760008    0.16562025    0.74438939    0.17850000
opls_521-42    C    0.83227991    0.11093010    0.78568939    0.17910000
opls_521-43    C    0.88902000    0.16768016    0.78575000    0.17910000
opls_522-44    C    0.83451028    0.27854024    0.72465000    -0.15460000
opls_522-45    C    0.72141986    0.16545980    0.72463939    -0.15460000
opls_522-46    C    0.83210992    0.05474997    0.80546970    -0.15460000
opls_522-47    C    0.94519999    0.16784015    0.80553030    -0.15420000
opls_521-48    C    0.39003998    0.72325025    0.01886970    0.06970000
opls_521-49    C    0.33321995    0.72325998    0.01886061    0.06520000
opls_521-50    C    0.44498007    0.83325009    0.04066061    0.17870000
opls_521-51    C    0.38830003    0.83326030    0.04065000    0.17870000
opls_521-52    C    0.60997001    0.27674002    0.17801970    0.06520000
opls_521-53    C    0.66680001    0.27675022    0.17801970    0.06520000
opls_521-54    C    0.55505000    0.16674017    0.15620000    0.17870000
opls_521-55    C    0.61174001    0.16674991    0.15618030    0.17850000
opls_521-56    C    0.44431011    0.94533026    0.07775000    0.17910000
opls_521-57    C    0.50104999    0.94532005    0.07771970    0.17850000
opls_521-58    C    0.55574025    0.05469015    0.11901970    0.17910000
opls_521-59    C    0.49899017    0.05467995    0.11908030    0.17910000
opls_522-60    C    0.38813016    0.88931012    0.05798030    -0.15460000
opls_522-61    C    0.50120980    0.88929991    0.05796970    -0.15460000
opls_522-62    C    0.61191992    0.11070009    0.13880000    -0.15460000
opls_522-63    C    0.49882996    0.11070009    0.13886061    -0.15460000
opls_521-64    C    0.05671001    0.05657987    0.35220000    0.06970000
opls_521-65    C    0.99989022    0.05659007    0.35218939    0.06520000
opls_521-66    C    0.11164993    0.16658018    0.37398939    0.17870000
opls_521-67    C    0.05497006    0.16658992    0.37398030    0.17870000
opls_521-68    C    0.27663987    0.61007010    0.51135000    0.06520000
opls_521-69    C    0.33347004    0.61007984    0.51135000    0.06520000
opls_521-70    C    0.22172027    0.50007026    0.48953030    0.17870000
opls_521-71    C    0.27840988    0.50007999    0.48951061    0.17850000
opls_521-72    C    0.11098014    0.27865988    0.41108030    0.17910000
opls_521-73    C    0.16772025    0.27865014    0.41105000    0.17850000
opls_521-74    C    0.22241012    0.38802024    0.45235000    0.17910000
opls_521-75    C    0.16566004    0.38801003    0.45241061    0.17910000
opls_522-76    C    0.05480002    0.22264020    0.39131061    -0.15460000
opls_522-77    C    0.16788006    0.22263000    0.39130000    -0.15460000
opls_522-78    C    0.27859019    0.44403017    0.47213030    -0.15420000
opls_522-79    C    0.16550023    0.44403017    0.47218939    -0.15460000
opls_521-80    C    0.72337012    0.38992016    0.68553939    0.06970000
opls_521-81    C    0.66655009    0.38992990    0.68553030    0.06520000
opls_521-82    C    0.77831020    0.49992001    0.70733030    0.17870000
opls_521-83    C    0.72163016    0.49993021    0.70731970    0.17870000
opls_521-84    C    0.94330014    0.94340993    0.84468939    0.06520000
opls_521-85    C    0.00013015    0.94342013    0.84468939    0.06520000
opls_521-86    C    0.88838014    0.83341008    0.82286970    0.17870000
opls_521-87    C    0.94506998    0.83342028    0.82285000    0.17850000
opls_521-88    C    0.77764025    0.61200017    0.74441970    0.17910000
opls_521-89    C    0.83438012    0.61198997    0.74438939    0.17850000
opls_521-90    C    0.88906999    0.72136006    0.78568939    0.17910000
opls_521-91    C    0.83231991    0.72134986    0.78575000    0.17910000
opls_522-92    C    0.72145989    0.55598003    0.72465000    -0.15460000
opls_522-93    C    0.83454016    0.55597029    0.72463939    -0.15460000
opls_522-94    C    0.94525006    0.77737000    0.80546970    -0.15460000
opls_522-95    C    0.83216010    0.77737000    0.80553030    -0.15420000
opls_521-96    C    0.27675003    0.66679002    0.01886970    0.06970000
opls_521-97    C    0.27673994    0.60996020    0.01886061    0.06520000
opls_521-98    C    0.16675028    0.61173027    0.04066061    0.17870000
opls_521-99    C    0.16674010    0.55504004    0.04065000    0.17870000
opls_521-100    C    0.72325994    0.33322992    0.17801970    0.06520000
opls_521-101    C    0.72324990    0.39005000    0.17801970    0.06520000
opls_521-102    C    0.83325985    0.38831007    0.15620000    0.17880000
opls_521-103    C    0.83325007    0.44499011    0.15618030    0.17850000
opls_521-104    C    0.05466993    0.49898001    0.07775000    0.17910000
opls_521-105    C    0.05467990    0.55573007    0.07771970    0.17860000
opls_521-106    C    0.94531020    0.50105013    0.11901970    0.17910000
opls_521-107    C    0.94532020    0.44431027    0.11908030    0.17910000
opls_522-108    C    0.11068993    0.49882003    0.05798030    -0.15460000
opls_522-109    C    0.11070008    0.61191020    0.05796970    -0.15460000
opls_522-110    C    0.88929989    0.50121986    0.13880000    -0.15460000
opls_522-111    C    0.88930001    0.38813014    0.13886061    -0.15420000
opls_521-112    C    0.94341989    0.00012011    0.35220000    0.06970000
opls_521-113    C    0.94341020    0.94329028    0.35218939    0.06520000
opls_521-114    C    0.83341991    0.94505990    0.37398939    0.17870000
opls_521-115    C    0.83340996    0.88837012    0.37398030    0.17870000
opls_521-116    C    0.38992980    0.66656001    0.51135000    0.06520000
opls_521-117    C    0.38992017    0.72338009    0.51135000    0.06520000
opls_521-118    C    0.49993012    0.72164016    0.48953030    0.17870000
opls_521-119    C    0.49991994    0.77832019    0.48951061    0.17850000
opls_521-120    C    0.72134019    0.83231010    0.41108030    0.17910000
opls_521-121    C    0.72135016    0.88906016    0.41105000    0.17850000
opls_521-122    C    0.61198007    0.83438022    0.45235000    0.17910000
opls_521-123    C    0.61198983    0.77763989    0.45241061    0.17910000
opls_522-124    C    0.77736020    0.83215011    0.39131061    -0.15420000
opls_522-125    C    0.77737035    0.94524029    0.39130000    -0.15460000
opls_522-126    C    0.55597015    0.83454994    0.47213030    -0.15460000
opls_522-127    C    0.55597027    0.72146023    0.47218939    -0.15420000
opls_521-128    C    0.61007977    0.33345993    0.68553939    0.06970000
opls_521-129    C    0.61007008    0.27663011    0.68553030    0.06520000
opls_521-130    C    0.50008001    0.27840019    0.70733030    0.17880000
opls_521-131    C    0.50006983    0.22170995    0.70731970    0.17880000
opls_521-132    C    0.05659031    0.99990030    0.84468939    0.06520000
opls_521-133    C    0.05658004    0.05671992    0.84468939    0.06520000
opls_521-134    C    0.16658999    0.05497998    0.82286970    0.17870000
opls_521-135    C    0.16657981    0.11166002    0.82285000    0.17850000
opls_521-136    C    0.38800006    0.16564993    0.74441970    0.17910000
opls_521-137    C    0.38801003    0.22239999    0.74438939    0.17850000
opls_521-138    C    0.27863994    0.16772004    0.78568939    0.17910000
opls_521-139    C    0.27864993    0.11098018    0.78575000    0.17910000
opls_522-140    C    0.44402007    0.16548994    0.72465000    -0.15460000
opls_522-141    C    0.44403022    0.27858012    0.72463939    -0.15460000
opls_522-142    C    0.22263026    0.16789023    0.80546970    -0.15460000
opls_522-143    C    0.22263015    0.05480005    0.80553030    -0.15450000
opls_520-144    N    0.33405994    0.55571987    0.02901061    -0.21540000
opls_520-145    N    0.44427007    0.66592005    0.02898939    -0.21540000
opls_520-146    N    0.66591001    0.44426019    0.16786970    -0.21540000
opls_520-147    N    0.55572031    0.33405027    0.16786061    -0.21540000
opls_520-148    N    0.44481995    0.44481018    0.09835000    -0.21540000
opls_520-149    N    0.55515007    0.55514994    0.09843939    -0.21540000
opls_520-150    N    0.00072980    0.88904996    0.36233939    -0.21530000
opls_520-151    N    0.11093993    0.99925014    0.36231970    -0.21540000
opls_520-152    N    0.33258028    0.77759027    0.50120000    -0.21540000
opls_520-153    N    0.22238995    0.66737989    0.50118939    -0.21540000
opls_520-154    N    0.11149021    0.77814026    0.43168030    -0.21540000
opls_520-155    N    0.22181993    0.88848003    0.43176970    -0.21540000
opls_520-156    N    0.66739031    0.22239025    0.69568030    -0.21540000
opls_520-157    N    0.77759980    0.33258997    0.69566061    -0.21540000
opls_520-158    N    0.99924015    0.11093010    0.83453939    -0.21540000
opls_520-159    N    0.88905005    0.00072018    0.83453030    -0.21540000
opls_520-160    N    0.77815009    0.11148009    0.76501970    -0.21540000
opls_520-161    N    0.88847981    0.22181985    0.76511061    -0.21530000
opls_520-162    N    0.44428011    0.77834013    0.02901061    -0.21540000
opls_520-163    N    0.33407976    0.77834987    0.02898939    -0.21540000
opls_520-164    N    0.55573992    0.22165013    0.16786970    -0.21540000
opls_520-165    N    0.66594989    0.22167007    0.16786061    -0.21540000
opls_520-166    N    0.55519024    0.00001020    0.09835000    -0.21540000
opls_520-167    N    0.44484980    0.00000000    0.09843939    -0.21540000
opls_520-168    N    0.11094997    0.11167022    0.36233939    -0.21540000
opls_520-169    N    0.00075002    0.11167996    0.36231970    -0.21540000
opls_520-170    N    0.22241019    0.55498021    0.50120000    -0.21540000
opls_520-171    N    0.33262016    0.55500016    0.50118939    -0.21540000
opls_520-172    N    0.22185987    0.33333983    0.43168030    -0.21540000
opls_520-173    N    0.11152006    0.33333009    0.43176970    -0.21540000
opls_520-174    N    0.77760984    0.44501005    0.69568030    -0.21540000
opls_520-175    N    0.66741012    0.44502025    0.69566061    -0.21540000
opls_520-176    N    0.88907006    0.88832004    0.83453939    -0.21540000
opls_520-177    N    0.99928003    0.88833998    0.83453030    -0.21540000
opls_520-178    N    0.88851998    0.66668011    0.76501970    -0.21540000
opls_520-179    N    0.77817994    0.66666991    0.76511061    -0.21540000
opls_520-180    N    0.22165996    0.66593999    0.02901061    -0.21540000
opls_520-181    N    0.22165018    0.55573007    0.02898939    -0.21540000
opls_520-182    N    0.77834989    0.33409015    0.16786970    -0.21540000
opls_520-183    N    0.77833002    0.44428013    0.16786061    -0.21540000
opls_520-184    N    0.99999004    0.55518008    0.09835000    -0.21540000
opls_520-185    N    0.00000013    0.44485006    0.09843939    -0.21540000
opls_520-186    N    0.88833022    0.99927008    0.36233939    -0.21540000
opls_520-187    N    0.88832004    0.88906016    0.36231970    -0.21540000
opls_520-188    N    0.44502016    0.66742024    0.50120000    -0.21540000
opls_520-189    N    0.44500029    0.77761021    0.50118939    -0.21530000
opls_520-190    N    0.66665991    0.88851017    0.43168030    -0.21540000
opls_520-191    N    0.66666999    0.77818015    0.43176970    -0.21540000
opls_520-192    N    0.55499009    0.33260991    0.69568030    -0.21540000
opls_520-193    N    0.55497991    0.22239999    0.69566061    -0.21540000
opls_520-194    N    0.11168003    0.00076006    0.83453939    -0.21540000
opls_520-195    N    0.11166016    0.11095004    0.83453030    -0.21540000
opls_520-196    N    0.33332018    0.22185000    0.76501970    -0.21540000
opls_520-197    N    0.33332987    0.11151997    0.76511061    -0.21540000
opls_525-198    H    0.54697023    0.65764006    0.05600000    0.05370000
opls_525-199    H    0.34234033    0.45298026    0.05600000    0.05370000
opls_525-200    H    0.45296995    0.34233026    0.14073939    0.05370000
opls_525-201    H    0.65763980    0.54695991    0.14083939    0.05370000
opls_525-202    H    0.21364009    0.99097015    0.38933030    0.05370000
opls_525-203    H    0.00900996    0.78630989    0.38933030    0.05370000
opls_525-204    H    0.11963022    0.67567009    0.47406970    0.05370000
opls_525-205    H    0.32431006    0.88029000    0.47418030    0.05370000
opls_525-206    H    0.88029997    0.32430997    0.72266061    0.05370000
opls_525-207    H    0.67567007    0.11965018    0.72266970    0.05370000
opls_525-208    H    0.78630009    0.00900017    0.80740000    0.05370000
opls_525-209    H    0.99097992    0.21362009    0.80751061    0.05370000
opls_525-210    H    0.34236021    0.88933006    0.05600000    0.05380000
opls_525-211    H    0.54702026    0.88936020    0.05600000    0.05370000
opls_525-212    H    0.65767005    0.11063006    0.14073939    0.05370000
opls_525-213    H    0.45304012    0.11068988    0.14083939    0.05370000
opls_525-214    H    0.00903012    0.22266988    0.38933030    0.05370000
opls_525-215    H    0.21368989    0.22268982    0.38933030    0.05370000
opls_525-216    H    0.32432992    0.44396989    0.47406970    0.05370000
opls_525-217    H    0.11970999    0.44401997    0.47418030    0.05370000
opls_525-218    H    0.67568994    0.55599997    0.72266061    0.05370000
opls_525-219    H    0.88035000    0.55603011    0.72266970    0.05370000
opls_525-220    H    0.99099979    0.77729998    0.80740000    0.05370000
opls_525-221    H    0.78637985    0.77735006    0.80751061    0.05370000
opls_525-222    H    0.11066996    0.45302988    0.05600000    0.05370000
opls_525-223    H    0.11064004    0.65766000    0.05600000    0.05370000
opls_525-224    H    0.88936999    0.54702994    0.14073939    0.05370000
opls_525-225    H    0.88931009    0.34235994    0.14083939    0.05370000
opls_525-226    H    0.77732978    0.78635997    0.38933030    0.05370000
opls_525-227    H    0.77730990    0.99099009    0.38933030    0.05370000
opls_525-228    H    0.55603009    0.88037023    0.47406970    0.05300000
opls_525-229    H    0.55597995    0.67569003    0.47418030    0.05370000
opls_525-230    H    0.44399970    0.11969980    0.72266061    0.05370000
opls_525-231    H    0.44396978    0.32432991    0.72266970    0.05370000
opls_525-232    H    0.22270013    0.21369985    0.80740000    0.05370000
opls_525-233    H    0.22265022    0.00902011    0.80751061    0.05300000
