#======================================================================
# Crystal Data Generated By AuToFF
#----------------------------------------------------------------------

data_AuToFF_phase_1

_cell_length_a                         17.9000
_cell_length_b                         17.9000
_cell_length_c                         3.5400
_cell_angle_alpha                      90.00
_cell_angle_beta                       90.00
_cell_angle_gamma                      120.00
_symmetry_space_group_name_H-M_alt     'P 1'
_symmetry_space_group_IT_number        1

loop_
_space_group_symop_operation_xyz
   'x, y, z'

loop_
   _atom_site_label
   _atom_site_type_symbol
   _atom_site_fract_x
   _atom_site_fract_y
   _atom_site_fract_z
   _atom_site_charge
opls_700-0    C    0.31524012    0.58045008    0.64844068    0.04650000
opls_145-1    C    0.24741008    0.59907043    0.63700000    -0.15720000
opls_142-2    C    0.29884011    0.49646010    0.70683898    0.08610000
opls_145-3    C    0.11246012    0.32603980    0.18790113    -0.24650000
opls_145-4    C    0.06848002    0.23879021    0.28981073    -0.23710000
opls_145-5    C    0.23017013    0.31011008    0.93657062    -0.24660000
opls_145-6    C    0.77797020    0.96193035    0.02281073    -0.23710000
opls_700-7    C    0.05097997    0.09235994    0.24735028    0.06210000
opls_145-8    C    0.16873020    0.80746040    0.00607062    0.16410000
opls_700-9    C    0.10086992    0.18318007    0.19405085    0.05130000
opls_145-10    C    0.95077017    0.91074033    0.25962994    -0.15750000
opls_700-11    C    0.41954993    0.73479036    0.64844068    0.04650000
opls_145-12    C    0.40093998    0.64835036    0.63700000    -0.15720000
opls_142-13    C    0.50353040    0.80238036    0.70683898    0.08610000
opls_145-14    C    0.67396975    0.78643001    0.18790113    -0.24650000
opls_145-15    C    0.76120981    0.82969000    0.28981073    -0.23710000
opls_145-16    C    0.68989003    0.92006051    0.93657062    -0.24660000
opls_145-17    C    0.03806973    0.81604002    0.02281073    -0.23710000
opls_700-18    C    0.90764038    0.95862042    0.24735028    0.06210000
opls_145-19    C    0.19254024    0.36127043    0.00607062    0.16410000
opls_700-20    C    0.81681991    0.91770015    0.19405085    0.05130000
opls_700-21    C    0.26521027    0.68476021    0.64844068    0.04650000
opls_145-22    C    0.35164984    0.75259017    0.63700000    -0.15720000
opls_142-23    C    0.19762032    0.70116018    0.70683898    0.08610000
opls_145-24    C    0.21357026    0.88754052    0.18790113    -0.24650000
opls_145-25    C    0.17031050    0.93152043    0.28981073    -0.23710000
opls_145-26    C    0.07994017    0.76983005    0.93657062    -0.24650000
opls_145-27    C    0.18396039    0.22203027    0.02281073    -0.23710000
opls_700-28    C    0.04137997    0.94902028    0.24735028    0.06360000
opls_145-29    C    0.63873020    0.83127046    0.00607062    0.16410000
opls_700-30    C    0.08231030    0.89913010    0.19405085    0.05130000
opls_145-31    C    0.08926015    0.04001974    0.25962994    -0.15750000
opls_145-32    C    0.95997993    0.04923025    0.25962994    -0.15750000
opls_750-33    N    0.22666998    0.44353996    0.89879096    -0.32230000
opls_750-34    N    0.55646017    0.78313040    0.89879096    -0.33970000
opls_750-35    N    0.21687017    0.77333028    0.89879096    -0.32240000
opls_146-36    H    0.08612978    0.36389979    0.24842938    0.18480000
opls_146-37    H    0.28944009    0.33543996    0.81301977    0.18480000
opls_146-38    H    0.81287026    0.02495057    0.94281073    0.18490000
opls_146-39    H    0.91520030    0.84556037    0.26801130    0.18510000
opls_146-40    H    0.18467010    0.54974019    0.63720904    0.18490000
opls_144-41    H    0.13628028    0.65848012    0.61942938    0.09010000
opls_146-42    H    0.63610007    0.72222025    0.24842938    0.18480000
opls_146-43    H    0.66455994    0.95400033    0.81301977    0.18480000
opls_146-44    H    0.45025998    0.63493002    0.63720904    0.18480000
opls_144-45    H    0.34152031    0.47780039    0.61942938    0.09010000
opls_146-46    H    0.27778052    0.91388060    0.24842938    0.18480000
opls_146-47    H    0.04600029    0.71056035    0.81301977    0.18480000
opls_146-48    H    0.36507024    0.81533043    0.63720904    0.18480000
opls_144-49    H    0.52220029    0.86372014    0.61942938    0.09010000
opls_146-50    H    0.01231995    0.21749017    0.43581921    0.18500000
opls_146-51    H    0.78251012    0.79483029    0.43581921    0.18500000
opls_146-52    H    0.97505021    0.78791048    0.94281073    0.18490000
opls_146-53    H    0.15444015    0.06964008    0.26801130    0.18510000
opls_146-54    H    0.20517026    0.98768018    0.43581921    0.18500000
opls_146-55    H    0.21209010    0.18712992    0.94281073    0.18480000
opls_146-56    H    0.93035988    0.08480020    0.26801130    0.18510000
