#======================================================================
# Crystal Data Generated By AuToFF
#----------------------------------------------------------------------

data_AuToFF_phase_1

_cell_length_a                         29.3670
_cell_length_b                         29.3670
_cell_length_c                         3.5120
_cell_angle_alpha                      90.00
_cell_angle_beta                       90.00
_cell_angle_gamma                      120.00
_symmetry_space_group_name_H-M_alt     'P 1'
_symmetry_space_group_IT_number        1

loop_
_space_group_symop_operation_xyz
   'x, y, z'

loop_
   _atom_site_label
   _atom_site_type_symbol
   _atom_site_fract_x
   _atom_site_fract_y
   _atom_site_fract_z
   _atom_site_charge
opls_280-0    C    0.29261005    0.67898997    0.00000000    0.28440000
opls_700-1    C    0.28048983    0.62604998    0.00000000    -0.10460000
opls_142-2    C    0.41491999    0.64417988    0.00000000    0.06910000
opls_142-3    C    0.46737014    0.89342996    0.00000000    0.02980000
opls_700-4    C    0.48377984    0.94667979    0.00000000    0.04830000
opls_145-5    C    0.53703972    0.98410975    0.00000000    -0.17520000
opls_145-6    C    0.44693006    0.96340008    0.00000000    -0.17520000
opls_280-7    C    0.32100988    0.61361986    0.00000000    0.28430000
opls_700-8    C    0.37394998    0.65443996    0.00000000    -0.10460000
opls_142-9    C    0.35582018    0.77074004    0.00000000    0.06910000
opls_142-10    C    0.10656991    0.57394003    0.00000000    0.02980000
opls_700-11    C    0.05331991    0.53709987    0.00000000    0.04830000
opls_145-12    C    0.01588985    0.55292996    0.00000000    -0.17520000
opls_145-13    C    0.03660001    0.48352998    0.00000000    -0.17520000
opls_280-14    C    0.38637987    0.70738978    0.00000000    0.28440000
opls_700-15    C    0.34556019    0.71951006    0.00000000    -0.10460000
opls_142-16    C    0.22926017    0.58508008    0.00000000    0.06910000
opls_142-17    C    0.42605996    0.53263001    0.00000000    0.02980000
opls_700-18    C    0.46290005    0.51621995    0.00000000    0.04830000
opls_145-19    C    0.44706990    0.46295990    0.00000000    -0.17520000
opls_145-20    C    0.51646993    0.55306994    0.00000000    -0.17520000
opls_280-21    C    0.70738995    0.32101003    0.00000000    0.28440000
opls_700-22    C    0.71951017    0.37395002    0.00000000    -0.10460000
opls_142-23    C    0.58508001    0.35582012    0.00000000    0.06910000
opls_142-24    C    0.53262986    0.10657004    0.00000000    0.02980000
opls_700-25    C    0.51621996    0.05331982    0.00000000    0.04830000
opls_145-26    C    0.46296008    0.01588986    0.00000000    -0.19740000
opls_145-27    C    0.55306994    0.03659992    0.00000000    -0.17520000
opls_280-28    C    0.67899012    0.38638014    0.00000000    0.28440000
opls_700-29    C    0.62605002    0.34556004    0.00000000    -0.10460000
opls_142-30    C    0.64417982    0.22925996    0.00000000    0.06910000
opls_142-31    C    0.89343009    0.42605997    0.00000000    0.02980000
opls_700-32    C    0.94668009    0.46290013    0.00000000    0.04830000
opls_145-33    C    0.98411015    0.44707004    0.00000000    -0.17520000
opls_145-34    C    0.96339999    0.51647002    0.00000000    -0.17520000
opls_280-35    C    0.61361993    0.29260983    0.00000000    0.28440000
opls_700-36    C    0.65443981    0.28048994    0.00000000    -0.10460000
opls_142-37    C    0.77073983    0.41491992    0.00000000    0.06910000
opls_142-38    C    0.57394004    0.46736999    0.00000000    0.02980000
opls_700-39    C    0.53709995    0.48378005    0.00000000    0.04830000
opls_145-40    C    0.55293010    0.53704010    0.00000000    -0.17520000
opls_145-41    C    0.48353007    0.44693006    0.00000000    -0.17520000
opls_238-42    N    0.40448001    0.59481012    0.00000000    -0.13130000
opls_750-43    N    0.41723997    0.85858999    0.00000000    -0.05560000
opls_238-44    N    0.40519018    0.80967004    0.00000000    -0.13130000
opls_750-45    N    0.14140989    0.55864979    0.00000000    -0.05570000
opls_238-46    N    0.19032981    0.59551984    0.00000000    -0.13130000
opls_750-47    N    0.44134995    0.58275982    0.00000000    -0.05560000
opls_238-48    N    0.59551999    0.40518988    0.00000000    -0.13130000
opls_750-49    N    0.58276003    0.14141001    0.00000000    -0.05560000
opls_238-50    N    0.59480982    0.19032996    0.00000000    -0.13130000
opls_750-51    N    0.85858991    0.44134981    0.00000000    -0.05560000
opls_238-52    N    0.80967019    0.40448016    0.00000000    -0.13130000
opls_750-53    N    0.55864986    0.41723978    0.00000000    -0.05560000
opls_281-54    O    0.30884992    0.56562982    0.00000000    -0.47440000
opls_281-55    O    0.43436981    0.74321982    0.00000000    -0.47460000
opls_281-56    O    0.25678008    0.69114997    0.00000000    -0.47440000
opls_281-57    O    0.69114989    0.43436979    0.00000000    -0.47450000
opls_281-58    O    0.56562999    0.25677979    0.00000000    -0.47440000
opls_281-59    O    0.74321992    0.30885003    0.00000000    -0.47440000
opls_144-60    H    0.45551983    0.67512996    0.00000000    0.11240000
opls_910-61    H    0.36365987    0.56689002    0.00000000    0.25800000
opls_144-62    H    0.49640993    0.88055985    0.00000000    0.08710000
opls_146-63    H    0.56571003    0.97112993    0.00000000    0.11220000
opls_146-64    H    0.40572015    0.93369998    0.00000000    0.11870000
opls_144-65    H    0.32486991    0.78038987    0.00000000    0.11240000
opls_910-66    H    0.43311006    0.79677005    0.00000000    0.25810000
opls_144-67    H    0.11944000    0.61585007    0.00000000    0.08710000
opls_146-68    H    0.02887005    0.59458010    0.00000000    0.11220000
opls_146-69    H    0.06630009    0.47201993    0.00000000    0.11870000
opls_144-70    H    0.21960972    0.54447978    0.00000000    0.11240000
opls_910-71    H    0.20323007    0.63633994    0.00000000    0.25810000
opls_144-72    H    0.38415007    0.50359008    0.00000000    0.08710000
opls_146-73    H    0.40541992    0.43428997    0.00000000    0.11220000
opls_146-74    H    0.52798010    0.59428009    0.00000000    0.11870000
opls_144-75    H    0.54448017    0.32487004    0.00000000    0.11240000
opls_910-76    H    0.63634013    0.43310998    0.00000000    0.25810000
opls_144-77    H    0.50359007    0.11944015    0.00000000    0.08710000
opls_146-78    H    0.43428997    0.02887007    0.00000000    0.11220000
opls_146-79    H    0.59427985    0.06630002    0.00000000    0.11870000
opls_144-80    H    0.67513009    0.21961013    0.00000000    0.11240000
opls_910-81    H    0.56688994    0.20322995    0.00000000    0.25810000
opls_144-82    H    0.88056000    0.38414993    0.00000000    0.08710000
opls_146-83    H    0.97112995    0.40541990    0.00000000    0.11220000
opls_146-84    H    0.93369991    0.52798007    0.00000000    0.11870000
opls_144-85    H    0.78039008    0.45551983    0.00000000    0.11240000
opls_910-86    H    0.79676993    0.36366006    0.00000000    0.25810000
opls_144-87    H    0.61584993    0.49640992    0.00000000    0.08710000
opls_146-88    H    0.59458008    0.56571003    0.00000000    0.11220000
opls_146-89    H    0.47201990    0.40571991    0.00000000    0.11870000
