#======================================================================
# Crystal Data Generated By AuToFF
#----------------------------------------------------------------------

data_AuToFF_phase_1

_cell_length_a                         41.1090
_cell_length_b                         36.8490
_cell_length_c                         3.5560
_cell_angle_alpha                      90.00
_cell_angle_beta                       88.55
_cell_angle_gamma                      90.00
_symmetry_space_group_name_H-M_alt     'P 1'
_symmetry_space_group_IT_number        1

loop_
_space_group_symop_operation_xyz
   'x, y, z'

loop_
   _atom_site_label
   _atom_site_type_symbol
   _atom_site_fract_x
   _atom_site_fract_y
   _atom_site_fract_z
   _atom_site_charge
opls_700-0    C    0.52814007    0.57682000    0.38953151    0.03830000
opls_700-1    C    0.52771995    0.53855003    0.36830986    0.03900000
opls_145-2    C    0.55336012    0.51837011    0.20291938    -0.10590000
opls_700-3    C    0.55683003    0.59884013    0.31256083    0.11390000
opls_145-4    C    0.55432998    0.63367011    0.15969124    -0.10730000
opls_145-5    C    0.58032009    0.65659991    0.12448873    -0.10560000
opls_700-6    C    0.61061993    0.64545008    0.24011072    0.13720000
opls_145-7    C    0.61339994    0.61023013    0.38265923    -0.10370000
opls_145-8    C    0.58729014    0.58752992    0.41853125    -0.10110000
opls_142-9    C    0.63892005    0.66750007    0.24523047    -0.10660000
opls_141-10    C    0.64459994    0.70274987    0.15349128    0.06240000
opls_700-11    C    0.67582010    0.71903010    0.22429013    0.01330000
opls_523-12    C    0.67903010    0.75551005    0.31930934    -0.10590000
opls_522-13    C    0.70849998    0.76812994    0.42558919    -0.13630000
opls_521-14    C    0.73436008    0.74413987    0.43466972    0.16460000
opls_521-15    C    0.70380002    0.69800999    0.21587911    0.09910000
opls_423-16    C    0.62100003    0.72605010    0.00888924    0.22750000
opls_700-17    C    0.02814007    0.07682000    0.38953151    0.03830000
opls_700-18    C    0.02771995    0.03855003    0.36830986    0.03900000
opls_145-19    C    0.05336012    0.01837011    0.20291938    -0.10580000
opls_700-20    C    0.05683003    0.09884013    0.31256083    0.11390000
opls_145-21    C    0.05432998    0.13367011    0.15969124    -0.10730000
opls_145-22    C    0.08032009    0.15659991    0.12448873    -0.10560000
opls_700-23    C    0.11061993    0.14545008    0.24011072    0.13720000
opls_145-24    C    0.11339994    0.11023013    0.38265923    -0.10370000
opls_145-25    C    0.08729014    0.08752992    0.41853125    -0.10110000
opls_142-26    C    0.13892005    0.16750007    0.24523047    -0.10660000
opls_141-27    C    0.14459994    0.20274987    0.15349128    0.06240000
opls_700-28    C    0.17582010    0.21903010    0.22429013    0.01330000
opls_523-29    C    0.17903010    0.25551005    0.31930934    -0.10590000
opls_522-30    C    0.20849998    0.26812994    0.42558919    -0.13630000
opls_521-31    C    0.23436008    0.24413987    0.43466972    0.16460000
opls_521-32    C    0.20380002    0.19800999    0.21587911    0.09910000
opls_423-33    C    0.12100003    0.22605010    0.00888924    0.22740000
opls_700-34    C    0.47185993    0.57682000    0.61047130    0.03830000
opls_700-35    C    0.47228005    0.53855003    0.63169014    0.03900000
opls_145-36    C    0.44664012    0.51837011    0.79708062    -0.10590000
opls_700-37    C    0.44316997    0.59884013    0.68743917    0.11390000
opls_145-38    C    0.44567002    0.63367011    0.84031157    -0.10730000
opls_145-39    C    0.41968016    0.65659991    0.87551127    -0.10560000
opls_700-40    C    0.38938007    0.64545008    0.75988928    0.13720000
opls_145-41    C    0.38660006    0.61023013    0.61734077    -0.10370000
opls_145-42    C    0.41271009    0.58752992    0.58147156    -0.10110000
opls_142-43    C    0.36107995    0.66750007    0.75476953    -0.10660000
opls_141-44    C    0.35540006    0.70274987    0.84651154    0.06240000
opls_700-45    C    0.32418015    0.71903010    0.77570987    0.01330000
opls_523-46    C    0.32097014    0.75551005    0.68069066    -0.10590000
opls_522-47    C    0.29150002    0.76812994    0.57441081    -0.13630000
opls_521-48    C    0.26563992    0.74413987    0.56533028    0.16460000
opls_521-49    C    0.29619998    0.69800999    0.78412089    0.09910000
opls_423-50    C    0.37899997    0.72605010    0.99111076    0.22740000
opls_700-51    C    0.97185993    0.07682000    0.61047130    0.03830000
opls_700-52    C    0.97228005    0.03855003    0.63169014    0.03900000
opls_145-53    C    0.94664012    0.01837011    0.79708062    -0.10590000
opls_700-54    C    0.94316997    0.09884013    0.68743917    0.11390000
opls_145-55    C    0.94567002    0.13367011    0.84031157    -0.10730000
opls_145-56    C    0.91968016    0.15659991    0.87551127    -0.10560000
opls_700-57    C    0.88938007    0.14545008    0.75988928    0.13720000
opls_145-58    C    0.88660006    0.11023013    0.61734077    -0.10370000
opls_145-59    C    0.91271009    0.08752992    0.58147156    -0.10110000
opls_142-60    C    0.86107995    0.16750007    0.75476953    -0.10660000
opls_141-61    C    0.85540006    0.20274987    0.84651154    0.06240000
opls_700-62    C    0.82418015    0.21903010    0.77570987    0.01330000
opls_523-63    C    0.82097014    0.25551005    0.68069066    -0.10590000
opls_522-64    C    0.79150002    0.26812994    0.57441081    -0.13630000
opls_521-65    C    0.76563992    0.24413987    0.56533028    0.16460000
opls_521-66    C    0.79619998    0.19800999    0.78412089    0.09910000
opls_423-67    C    0.87899997    0.22605010    0.99111076    0.22740000
opls_700-68    C    0.47185993    0.42318000    0.61047130    0.03830000
opls_700-69    C    0.47228005    0.46144997    0.63169014    0.03900000
opls_145-70    C    0.44664012    0.48162989    0.79708062    -0.10590000
opls_700-71    C    0.44316997    0.40115987    0.68743917    0.11390000
opls_145-72    C    0.44567002    0.36632989    0.84031157    -0.10730000
opls_145-73    C    0.41968016    0.34340009    0.87551127    -0.10560000
opls_700-74    C    0.38938007    0.35454992    0.75988928    0.13720000
opls_145-75    C    0.38660006    0.38976987    0.61734077    -0.10370000
opls_145-76    C    0.41271009    0.41247008    0.58147156    -0.10110000
opls_142-77    C    0.36107995    0.33249993    0.75476953    -0.10660000
opls_141-78    C    0.35540006    0.29725013    0.84651154    0.06240000
opls_700-79    C    0.32418015    0.28096990    0.77570987    0.01330000
opls_523-80    C    0.32097014    0.24448995    0.68069066    -0.10590000
opls_522-81    C    0.29150002    0.23187006    0.57441081    -0.13620000
opls_521-82    C    0.26563992    0.25586013    0.56533028    0.16460000
opls_521-83    C    0.29619998    0.30199001    0.78412089    0.09910000
opls_423-84    C    0.37899997    0.27394990    0.99111076    0.22740000
opls_700-85    C    0.97185993    0.92318000    0.61047130    0.03830000
opls_700-86    C    0.97228005    0.96144997    0.63169014    0.03900000
opls_145-87    C    0.94664012    0.98162989    0.79708062    -0.10590000
opls_700-88    C    0.94316997    0.90115987    0.68743917    0.11390000
opls_145-89    C    0.94567002    0.86632989    0.84031157    -0.10720000
opls_145-90    C    0.91968016    0.84340009    0.87551127    -0.10560000
opls_700-91    C    0.88938007    0.85454992    0.75988928    0.13720000
opls_145-92    C    0.88660006    0.88976987    0.61734077    -0.10360000
opls_145-93    C    0.91271009    0.91247008    0.58147156    -0.10110000
opls_142-94    C    0.86107995    0.83249993    0.75476953    -0.10660000
opls_141-95    C    0.85540006    0.79725013    0.84651154    0.06240000
opls_700-96    C    0.82418015    0.78096990    0.77570987    0.01330000
opls_523-97    C    0.82097014    0.74448995    0.68069066    -0.10590000
opls_522-98    C    0.79150002    0.73187006    0.57441081    -0.13630000
opls_521-99    C    0.76563992    0.75586013    0.56533028    0.16460000
opls_521-100    C    0.79619998    0.80199001    0.78412089    0.09910000
opls_423-101    C    0.87899997    0.77394990    0.99111076    0.22740000
opls_700-102    C    0.52814007    0.42318000    0.38953151    0.03830000
opls_700-103    C    0.52771995    0.46144997    0.36830986    0.03900000
opls_145-104    C    0.55336012    0.48162989    0.20291938    -0.10590000
opls_700-105    C    0.55683003    0.40115987    0.31256083    0.11390000
opls_145-106    C    0.55432998    0.36632989    0.15969124    -0.10730000
opls_145-107    C    0.58032009    0.34340009    0.12448873    -0.10560000
opls_700-108    C    0.61061993    0.35454992    0.24011072    0.13720000
opls_145-109    C    0.61339994    0.38976987    0.38265923    -0.10370000
opls_145-110    C    0.58729014    0.41247008    0.41853125    -0.10110000
opls_142-111    C    0.63892005    0.33249993    0.24523047    -0.10650000
opls_141-112    C    0.64459994    0.29725013    0.15349128    0.06240000
opls_700-113    C    0.67582010    0.28096990    0.22429013    0.01330000
opls_523-114    C    0.67903010    0.24448995    0.31930934    -0.10590000
opls_522-115    C    0.70849998    0.23187006    0.42558919    -0.13620000
opls_521-116    C    0.73436008    0.25586013    0.43466972    0.16470000
opls_521-117    C    0.70380002    0.30199001    0.21587911    0.09910000
opls_423-118    C    0.62100003    0.27394990    0.00888924    0.22750000
opls_700-119    C    0.02814007    0.92318000    0.38953151    0.03830000
opls_700-120    C    0.02771995    0.96144997    0.36830986    0.03900000
opls_145-121    C    0.05336012    0.98162989    0.20291938    -0.10590000
opls_700-122    C    0.05683003    0.90115987    0.31256083    0.11390000
opls_145-123    C    0.05432998    0.86632989    0.15969124    -0.10730000
opls_145-124    C    0.08032009    0.84340009    0.12448873    -0.10560000
opls_700-125    C    0.11061993    0.85454992    0.24011072    0.13720000
opls_145-126    C    0.11339994    0.88976987    0.38265923    -0.10360000
opls_145-127    C    0.08729014    0.91247008    0.41853125    -0.10110000
opls_142-128    C    0.13892005    0.83249993    0.24523047    -0.10660000
opls_141-129    C    0.14459994    0.79725013    0.15349128    0.06240000
opls_700-130    C    0.17582010    0.78096990    0.22429013    0.01330000
opls_523-131    C    0.17903010    0.74448995    0.31930934    -0.10590000
opls_522-132    C    0.20849998    0.73187006    0.42558919    -0.13630000
opls_521-133    C    0.23436008    0.75586013    0.43466972    0.16460000
opls_521-134    C    0.20380002    0.80199001    0.21587911    0.09910000
opls_423-135    C    0.12100003    0.77394990    0.00888924    0.22750000
opls_145-136    C    0.50000000    0.59453988    0.50000000    -0.14390000
opls_700-137    C    0.50000000    0.51931993    0.50000000    0.01910000
opls_145-138    C    0.00000000    0.09453988    0.50000000    -0.14390000
opls_700-139    C    0.00000000    0.01931993    0.50000000    0.01910000
opls_145-140    C    0.50000000    0.40546012    0.50000000    -0.14390000
opls_700-141    C    0.50000000    0.48068007    0.50000000    0.01910000
opls_145-142    C    0.00000000    0.90546012    0.50000000    -0.14390000
opls_700-143    C    0.00000000    0.98068007    0.50000000    0.01910000
opls_520-144    N    0.73206002    0.70965996    0.32078900    -0.14030000
opls_753-145    N    0.60278007    0.74634997    0.88490967    -0.27300000
opls_520-146    N    0.23206002    0.20965996    0.32078900    -0.14030000
opls_753-147    N    0.10278007    0.24634997    0.88490967    -0.27290000
opls_520-148    N    0.26793998    0.70965996    0.67921100    -0.14030000
opls_753-149    N    0.39721993    0.74634997    0.11509033    -0.27300000
opls_520-150    N    0.76793998    0.20965996    0.67921100    -0.14030000
opls_753-151    N    0.89721993    0.24634997    0.11509033    -0.27300000
opls_520-152    N    0.26793998    0.29034004    0.67921100    -0.14030000
opls_753-153    N    0.39721993    0.25365003    0.11509033    -0.27300000
opls_520-154    N    0.76793998    0.79034004    0.67921100    -0.14030000
opls_753-155    N    0.89721993    0.75365003    0.11509033    -0.27290000
opls_520-156    N    0.73206002    0.29034004    0.32078900    -0.14030000
opls_753-157    N    0.60278007    0.25365003    0.88490967    -0.27300000
opls_520-158    N    0.23206002    0.79034004    0.32078900    -0.14030000
opls_753-159    N    0.10278007    0.75365003    0.88490967    -0.27300000
opls_146-160    H    0.57495992    0.53293007    0.06360025    0.04980000
opls_146-161    H    0.52987992    0.64389997    0.05864085    0.04980000
opls_146-162    H    0.57702001    0.68484002    0.00016034    0.04980000
opls_146-163    H    0.63807007    0.59968005    0.47318882    0.04980000
opls_146-164    H    0.59072995    0.55906999    0.53681158    0.04980000
opls_144-165    H    0.66292013    0.65561996    0.34159151    0.04980000
opls_526-166    H    0.65711004    0.77439008    0.30744108    0.04980000
opls_525-167    H    0.71148996    0.79790008    0.50477093    0.04980000
opls_524-168    H    0.70284013    0.66875003    0.11274987    0.02940000
opls_146-169    H    0.07495992    0.03293007    0.06360025    0.04980000
opls_146-170    H    0.02987992    0.14389997    0.05864085    0.04980000
opls_146-171    H    0.07702001    0.18484002    0.00016034    0.04980000
opls_146-172    H    0.13807007    0.09968005    0.47318882    0.04980000
opls_146-173    H    0.09072995    0.05906999    0.53681158    0.04980000
opls_144-174    H    0.16292013    0.15561996    0.34159151    0.04980000
opls_526-175    H    0.15711004    0.27439008    0.30744108    0.04980000
opls_525-176    H    0.21148996    0.29790008    0.50477093    0.04980000
opls_524-177    H    0.20284013    0.16875003    0.11274987    0.02940000
opls_146-178    H    0.42504008    0.53293007    0.93639975    0.04980000
opls_146-179    H    0.47012008    0.64389997    0.94135915    0.04980000
opls_146-180    H    0.42297999    0.68484002    0.99983966    0.04980000
opls_146-181    H    0.36192993    0.59968005    0.52681118    0.04980000
opls_146-182    H    0.40927004    0.55906999    0.46319124    0.04980000
opls_144-183    H    0.33708011    0.65561996    0.65841130    0.04980000
opls_526-184    H    0.34288996    0.77439008    0.69255892    0.04980000
opls_525-185    H    0.28851004    0.79790008    0.49522907    0.04980000
opls_524-186    H    0.29716012    0.66875003    0.88725013    0.02950000
opls_146-187    H    0.92504008    0.03293007    0.93639975    0.04980000
opls_146-188    H    0.97012008    0.14389997    0.94135915    0.04980000
opls_146-189    H    0.92297999    0.18484002    0.99983966    0.04980000
opls_146-190    H    0.86192993    0.09968005    0.52681118    0.04980000
opls_146-191    H    0.90927004    0.05906999    0.46319124    0.04980000
opls_144-192    H    0.83708011    0.15561996    0.65841130    0.04980000
opls_526-193    H    0.84288996    0.27439008    0.69255892    0.04980000
opls_525-194    H    0.78851004    0.29790008    0.49522907    0.04980000
opls_524-195    H    0.79716012    0.16875003    0.88725013    0.02940000
opls_146-196    H    0.42544000    0.46616000    0.93383987    0.04980000
opls_146-197    H    0.47012008    0.35610003    0.94135915    0.04980000
opls_146-198    H    0.42297999    0.31515998    0.99983966    0.04980000
opls_146-199    H    0.36192993    0.40031995    0.52681118    0.04980000
opls_146-200    H    0.40927004    0.44093001    0.46319124    0.04980000
opls_144-201    H    0.33708011    0.34438004    0.65841130    0.04990000
opls_526-202    H    0.34288996    0.22560992    0.69255892    0.04980000
opls_525-203    H    0.28851004    0.20209992    0.49522907    0.04980000
opls_524-204    H    0.29716012    0.33124997    0.88725013    0.02940000
opls_146-205    H    0.92504008    0.96706993    0.93639975    0.04980000
opls_146-206    H    0.97012008    0.85610003    0.94135915    0.04980000
opls_146-207    H    0.92297999    0.81515998    0.99983966    0.04980000
opls_146-208    H    0.86192993    0.90031995    0.52681118    0.04980000
opls_146-209    H    0.90927004    0.94093001    0.46319124    0.04980000
opls_144-210    H    0.83708011    0.84438004    0.65841130    0.04980000
opls_526-211    H    0.84288996    0.72560992    0.69255892    0.04980000
opls_525-212    H    0.78851004    0.70209992    0.49522907    0.04980000
opls_524-213    H    0.79716012    0.83124997    0.88725013    0.02940000
opls_146-214    H    0.57456000    0.46616000    0.06616013    0.04980000
opls_146-215    H    0.52987992    0.35610003    0.05864085    0.04980000
opls_146-216    H    0.57702001    0.31515998    0.00016034    0.04980000
opls_146-217    H    0.63807007    0.40031995    0.47318882    0.04980000
opls_146-218    H    0.59072995    0.44093001    0.53681158    0.04980000
opls_144-219    H    0.66292013    0.34438004    0.34159151    0.04990000
opls_526-220    H    0.65711004    0.22560992    0.30744108    0.04980000
opls_525-221    H    0.71148996    0.20209992    0.50477093    0.04980000
opls_524-222    H    0.70284013    0.33124997    0.11274987    0.02940000
opls_146-223    H    0.07495992    0.96706993    0.06360025    0.04980000
opls_146-224    H    0.02987992    0.85610003    0.05864085    0.04980000
opls_146-225    H    0.07702001    0.81515998    0.00016034    0.04980000
opls_146-226    H    0.13807007    0.90031995    0.47318882    0.04980000
opls_146-227    H    0.09072995    0.94093001    0.53681158    0.04980000
opls_144-228    H    0.16292013    0.84438004    0.34159151    0.04980000
opls_526-229    H    0.15711004    0.72560992    0.30744108    0.04980000
opls_525-230    H    0.21148996    0.70209992    0.50477093    0.04980000
opls_524-231    H    0.20284013    0.83124997    0.11274987    0.02940000
opls_146-232    H    0.49921997    0.62546012    0.50306904    0.04980000
opls_146-233    H    0.99921997    0.12546012    0.50306904    0.04980000
opls_146-234    H    0.50078003    0.37453988    0.49693096    0.04980000
opls_146-235    H    0.99921997    0.87453988    0.50306904    0.04980000
