#======================================================================
# Crystal Data Generated By AuToFF
#----------------------------------------------------------------------

data_AuToFF_phase_1

_cell_length_a                         33.9229
_cell_length_b                         32.7770
_cell_length_c                         6.6769
_cell_angle_alpha                      90.00
_cell_angle_beta                       90.00
_cell_angle_gamma                      90.00
_symmetry_space_group_name_H-M_alt     'P 1'
_symmetry_space_group_IT_number        1

loop_
_space_group_symop_operation_xyz
   'x, y, z'

loop_
   _atom_site_label
   _atom_site_type_symbol
   _atom_site_fract_x
   _atom_site_fract_y
   _atom_site_fract_z
   _atom_site_charge
opls_700-0    C    0.46392997    0.95693993    0.63442017    0.02990000
opls_145-1    C    0.42835990    0.02110992    0.62926059    -0.12780000
opls_700-2    C    0.46440988    0.08598987    0.62455930    0.01610000
opls_145-3    C    0.40177992    0.11225005    0.76319999    -0.12870000
opls_700-4    C    0.42800999    0.10922995    0.60227051    0.07310000
opls_145-5    C    0.36499002    0.12988986    0.73437074    -0.12500000
opls_700-6    C    0.35461001    0.14523995    0.54567988    0.06090000
opls_145-7    C    0.38133002    0.14293010    0.38562057    -0.12220000
opls_145-8    C    0.41794009    0.12478994    0.41394959    -0.12940000
opls_142-9    C    0.31706988    0.16624005    0.52439006    0.05080000
opls_145-10    C    0.77980008    0.27943985    0.38039060    0.18620000
opls_145-11    C    0.76508995    0.26454007    0.19880933    -0.17310000
opls_145-12    C    0.73500998    0.23579004    0.56163040    -0.18210000
opls_700-13    C    0.96392997    0.45693993    0.63442017    0.02990000
opls_145-14    C    0.92835990    0.52110992    0.62926059    -0.12780000
opls_700-15    C    0.96440988    0.58598987    0.62455930    0.01610000
opls_145-16    C    0.90177992    0.61225005    0.76319999    -0.12860000
opls_700-17    C    0.92800999    0.60922995    0.60227051    0.07310000
opls_145-18    C    0.86499002    0.62988986    0.73437074    -0.12500000
opls_700-19    C    0.85461001    0.64523995    0.54567988    0.06100000
opls_145-20    C    0.88133002    0.64293010    0.38562057    -0.12220000
opls_145-21    C    0.91794009    0.62478994    0.41394959    -0.12940000
opls_142-22    C    0.81706988    0.66624005    0.52439006    0.05080000
opls_145-23    C    0.27980008    0.77943985    0.38039060    0.18620000
opls_145-24    C    0.26508995    0.76454007    0.19880933    -0.17310000
opls_145-25    C    0.23500998    0.73579004    0.56163040    -0.18210000
opls_700-26    C    0.53607003    0.04306007    0.63442017    0.02990000
opls_145-27    C    0.57164010    0.97889008    0.62926059    -0.12780000
opls_700-28    C    0.53559012    0.91401013    0.62455930    0.01610000
opls_145-29    C    0.59822008    0.88774995    0.76319999    -0.12870000
opls_700-30    C    0.57199001    0.89077005    0.60227051    0.07310000
opls_145-31    C    0.63500998    0.87011014    0.73437074    -0.12500000
opls_700-32    C    0.64538999    0.85476005    0.54567988    0.06090000
opls_145-33    C    0.61866998    0.85706990    0.38562057    -0.12220000
opls_145-34    C    0.58205991    0.87521006    0.41394959    -0.12940000
opls_142-35    C    0.68293012    0.83375995    0.52439006    0.05080000
opls_145-36    C    0.22019992    0.72056015    0.38039060    0.18620000
opls_145-37    C    0.23491005    0.73545993    0.19880933    -0.17310000
opls_145-38    C    0.26499002    0.76420996    0.56163040    -0.18210000
opls_700-39    C    0.03607003    0.54306007    0.63442017    0.02990000
opls_145-40    C    0.07164010    0.47889008    0.62926059    -0.12780000
opls_700-41    C    0.03559012    0.41401013    0.62455930    0.01610000
opls_145-42    C    0.09822008    0.38774995    0.76319999    -0.12870000
opls_700-43    C    0.07199001    0.39077005    0.60227051    0.07310000
opls_145-44    C    0.13500998    0.37011014    0.73437074    -0.12500000
opls_700-45    C    0.14538999    0.35476005    0.54567988    0.06090000
opls_145-46    C    0.11866998    0.35706990    0.38562057    -0.12220000
opls_145-47    C    0.08205991    0.37521006    0.41394959    -0.12940000
opls_142-48    C    0.18293012    0.33375995    0.52439006    0.05080000
opls_145-49    C    0.72019992    0.22056015    0.38039060    0.18620000
opls_145-50    C    0.73491005    0.23545993    0.19880933    -0.17310000
opls_145-51    C    0.76499002    0.26420996    0.56163040    -0.18210000
opls_700-52    C    0.46392997    0.04306007    0.63442017    0.02990000
opls_145-53    C    0.42835990    0.97889008    0.62926059    -0.12780000
opls_700-54    C    0.46440988    0.91401013    0.62455930    0.01610000
opls_145-55    C    0.40177992    0.88774995    0.76319999    -0.12870000
opls_700-56    C    0.42800999    0.89077005    0.60227051    0.07310000
opls_145-57    C    0.36499002    0.87011014    0.73437074    -0.12500000
opls_700-58    C    0.35461001    0.85476005    0.54567988    0.06090000
opls_145-59    C    0.38133002    0.85706990    0.38562057    -0.12220000
opls_145-60    C    0.41794009    0.87521006    0.41394959    -0.12940000
opls_142-61    C    0.31706988    0.83375995    0.52439006    0.05080000
opls_145-62    C    0.77980008    0.72056015    0.38039060    0.18620000
opls_145-63    C    0.76508995    0.73545993    0.19880933    -0.17310000
opls_145-64    C    0.73500998    0.76420996    0.56163040    -0.18210000
opls_700-65    C    0.96392997    0.54306007    0.63442017    0.02990000
opls_145-66    C    0.92835990    0.47889008    0.62926059    -0.12780000
opls_700-67    C    0.96440988    0.41401013    0.62455930    0.01610000
opls_145-68    C    0.90177992    0.38774995    0.76319999    -0.12870000
opls_700-69    C    0.92800999    0.39077005    0.60227051    0.07310000
opls_145-70    C    0.86499002    0.37011014    0.73437074    -0.12500000
opls_700-71    C    0.85461001    0.35476005    0.54567988    0.06090000
opls_145-72    C    0.88133002    0.35706990    0.38562057    -0.12220000
opls_145-73    C    0.91794009    0.37521006    0.41394959    -0.12940000
opls_142-74    C    0.81706988    0.33375995    0.52439006    0.05080000
opls_145-75    C    0.27980008    0.22056015    0.38039060    0.18620000
opls_145-76    C    0.26508995    0.23545993    0.19880933    -0.17310000
opls_145-77    C    0.23500998    0.26420996    0.56163040    -0.18210000
opls_700-78    C    0.53607003    0.95693993    0.63442017    0.02990000
opls_145-79    C    0.57164010    0.02110992    0.62926059    -0.12770000
opls_700-80    C    0.53559012    0.08598987    0.62455930    0.01610000
opls_145-81    C    0.59822008    0.11225005    0.76319999    -0.12870000
opls_700-82    C    0.57199001    0.10922995    0.60227051    0.07310000
opls_145-83    C    0.63500998    0.12988986    0.73437074    -0.12500000
opls_700-84    C    0.64538999    0.14523995    0.54567988    0.06090000
opls_145-85    C    0.61866998    0.14293010    0.38562057    -0.12220000
opls_145-86    C    0.58205991    0.12478994    0.41394959    -0.12940000
opls_142-87    C    0.68293012    0.16624005    0.52439006    0.05080000
opls_145-88    C    0.22019992    0.27943985    0.38039060    0.18630000
opls_145-89    C    0.23491005    0.26454007    0.19880933    -0.17310000
opls_145-90    C    0.26499002    0.23579004    0.56163040    -0.18200000
opls_700-91    C    0.03607003    0.45693993    0.63442017    0.02990000
opls_145-92    C    0.07164010    0.52110992    0.62926059    -0.12780000
opls_700-93    C    0.03559012    0.58598987    0.62455930    0.01610000
opls_145-94    C    0.09822008    0.61225005    0.76319999    -0.12870000
opls_700-95    C    0.07199001    0.60922995    0.60227051    0.07310000
opls_145-96    C    0.13500998    0.62988986    0.73437074    -0.12500000
opls_700-97    C    0.14538999    0.64523995    0.54567988    0.06090000
opls_145-98    C    0.11866998    0.64293010    0.38562057    -0.12220000
opls_145-99    C    0.08205991    0.62478994    0.41394959    -0.12940000
opls_142-100    C    0.18293012    0.66624005    0.52439006    0.05080000
opls_145-101    C    0.72019992    0.77943985    0.38039060    0.18620000
opls_145-102    C    0.73491005    0.76454007    0.19880933    -0.17310000
opls_145-103    C    0.76499002    0.73579004    0.56163040    -0.18210000
opls_145-104    C    0.50000000    0.10704000    0.61920053    -0.19900000
opls_700-105    C    0.50000000    0.97845013    0.63979991    0.01650000
opls_145-106    C    0.00000000    0.60704000    0.61920053    -0.19900000
opls_700-107    C    0.00000000    0.47845013    0.63979991    0.01650000
opls_145-108    C    0.50000000    0.89296000    0.61920053    -0.19890000
opls_700-109    C    0.50000000    0.02154987    0.63979991    0.01650000
opls_145-110    C    0.00000000    0.39296000    0.61920053    -0.19900000
opls_700-111    C    0.00000000    0.52154987    0.63979991    0.01650000
opls_750-112    N    0.31168002    0.19220002    0.38045949    -0.30660000
opls_750-113    N    0.81168002    0.69220002    0.38045949    -0.30670000
opls_750-114    N    0.68831998    0.80779998    0.38045949    -0.30680000
opls_750-115    N    0.18831998    0.30779998    0.38045949    -0.30680000
opls_750-116    N    0.31168002    0.80779998    0.38045949    -0.30670000
opls_750-117    N    0.81168002    0.30779998    0.38045949    -0.30680000
opls_750-118    N    0.68831998    0.19220002    0.38045949    -0.30680000
opls_750-119    N    0.18831998    0.69220002    0.38045949    -0.30670000
opls_146-120    H    0.40006986    0.03620008    0.62035975    0.11690000
opls_146-121    H    0.40944996    0.09993013    0.90868966    0.11130000
opls_146-122    H    0.34482989    0.13203008    0.85981968    0.11550000
opls_146-123    H    0.37385011    0.15485005    0.23916039    0.11240000
opls_146-124    H    0.43806986    0.12204991    0.28865941    0.11550000
opls_144-125    H    0.29564011    0.16299997    0.64371939    0.10530000
opls_146-126    H    0.77684013    0.27567013    0.05859006    0.11800000
opls_146-127    H    0.72310003    0.22629008    0.70413965    0.11850000
opls_146-128    H    0.90006986    0.53620008    0.62035975    0.11690000
opls_146-129    H    0.90944996    0.59993013    0.90868966    0.11130000
opls_146-130    H    0.84482989    0.63203008    0.85981968    0.11550000
opls_146-131    H    0.87385011    0.65485005    0.23916039    0.11240000
opls_146-132    H    0.93806986    0.62204991    0.28865941    0.11560000
opls_144-133    H    0.79564011    0.66299997    0.64371939    0.10530000
opls_146-134    H    0.27684013    0.77567013    0.05859006    0.11800000
opls_146-135    H    0.22310003    0.72629008    0.70413965    0.11850000
opls_146-136    H    0.59993014    0.96379992    0.62035975    0.11690000
opls_146-137    H    0.59055004    0.90006987    0.90868966    0.11130000
opls_146-138    H    0.65517011    0.86796992    0.85981968    0.11550000
opls_146-139    H    0.62614989    0.84514995    0.23916039    0.11240000
opls_146-140    H    0.56193014    0.87795009    0.28865941    0.11550000
opls_144-141    H    0.70435989    0.83700003    0.64371939    0.10530000
opls_146-142    H    0.22315987    0.72432987    0.05859006    0.11800000
opls_146-143    H    0.27689997    0.77370992    0.70413965    0.11850000
opls_146-144    H    0.09993014    0.46379992    0.62035975    0.11690000
opls_146-145    H    0.09055004    0.40006987    0.90868966    0.11130000
opls_146-146    H    0.15517011    0.36796992    0.85981968    0.11550000
opls_146-147    H    0.12614989    0.34514995    0.23916039    0.11250000
opls_146-148    H    0.06193014    0.37795009    0.28865941    0.11550000
opls_144-149    H    0.20435989    0.33700003    0.64371939    0.10530000
opls_146-150    H    0.72315987    0.22432987    0.05859006    0.11800000
opls_146-151    H    0.77689997    0.27370992    0.70413965    0.11850000
opls_146-152    H    0.40006986    0.96379992    0.62035975    0.11690000
opls_146-153    H    0.40944996    0.90006987    0.90868966    0.11130000
opls_146-154    H    0.34482989    0.86796992    0.85981968    0.11550000
opls_146-155    H    0.37385011    0.84514995    0.23916039    0.11240000
opls_146-156    H    0.43806986    0.87795009    0.28865941    0.11550000
opls_144-157    H    0.29564011    0.83700003    0.64371939    0.10530000
opls_146-158    H    0.77684013    0.72432987    0.05859006    0.11800000
opls_146-159    H    0.72310003    0.77370992    0.70413965    0.11850000
opls_146-160    H    0.90006986    0.46379992    0.62035975    0.11690000
opls_146-161    H    0.90944996    0.40006987    0.90868966    0.11130000
opls_146-162    H    0.84482989    0.36796992    0.85981968    0.11550000
opls_146-163    H    0.87385011    0.34514995    0.23916039    0.11240000
opls_146-164    H    0.93806986    0.37795009    0.28865941    0.11550000
opls_144-165    H    0.79564011    0.33700003    0.64371939    0.10530000
opls_146-166    H    0.27684013    0.22432987    0.05859006    0.11810000
opls_146-167    H    0.22310003    0.27370992    0.70413965    0.11850000
opls_146-168    H    0.59993014    0.03620008    0.62035975    0.11690000
opls_146-169    H    0.59055004    0.09993013    0.90868966    0.11130000
opls_146-170    H    0.65517011    0.13203008    0.85981968    0.11550000
opls_146-171    H    0.62614989    0.15485005    0.23916039    0.11240000
opls_146-172    H    0.56193014    0.12204991    0.28865941    0.11550000
opls_144-173    H    0.70435989    0.16299997    0.64371939    0.10540000
opls_146-174    H    0.22315987    0.27567013    0.05859006    0.11800000
opls_146-175    H    0.27689997    0.22629008    0.70413965    0.11850000
opls_146-176    H    0.09993014    0.53620008    0.62035975    0.11690000
opls_146-177    H    0.09055004    0.59993013    0.90868966    0.11130000
opls_146-178    H    0.15517011    0.63203008    0.85981968    0.11550000
opls_146-179    H    0.12614989    0.65485005    0.23916039    0.11240000
opls_146-180    H    0.06193014    0.62204991    0.28865941    0.11560000
opls_144-181    H    0.20435989    0.66299997    0.64371939    0.10530000
opls_146-182    H    0.72315987    0.77567013    0.05859006    0.11800000
opls_146-183    H    0.77689997    0.72629008    0.70413965    0.11850000
opls_146-184    H    0.50000000    0.14005004    0.60672018    0.11150000
opls_146-185    H    0.00000000    0.64005004    0.60672018    0.11150000
opls_146-186    H    0.50000000    0.85994996    0.60672018    0.11150000
opls_146-187    H    0.00000000    0.35994996    0.60672018    0.11150000
