#======================================================================
# Crystal Data Generated By AuToFF
#----------------------------------------------------------------------

data_AuToFF_phase_1

_cell_length_a                         21.5700
_cell_length_b                         21.5700
_cell_length_c                         10.3400
_cell_angle_alpha                      90.00
_cell_angle_beta                       90.00
_cell_angle_gamma                      120.00
_symmetry_space_group_name_H-M_alt     'P 1'
_symmetry_space_group_IT_number        1

loop_
_space_group_symop_operation_xyz
   'x, y, z'

loop_
   _atom_site_label
   _atom_site_type_symbol
   _atom_site_fract_x
   _atom_site_fract_y
   _atom_site_fract_z
   _atom_site_charge
opls_700-0    C    0.06210971    0.06967977    0.79505996    -0.03070000
opls_700-1    C    0.93031975    0.99242994    0.79505996    -0.03070000
opls_700-2    C    0.00756982    0.93788975    0.79505996    -0.03070000
opls_700-3    C    0.93789003    0.93031969    0.79505996    -0.03070000
opls_700-4    C    0.06968025    0.00757006    0.79505996    -0.03070000
opls_700-5    C    0.99243018    0.06211025    0.79505996    -0.03070000
opls_145-6    C    0.05381008    0.85562016    0.72211025    -0.13330000
opls_145-7    C    0.14438003    0.19820002    0.72211025    -0.13330000
opls_145-8    C    0.80180014    0.94619000    0.72211025    -0.13330000
opls_145-9    C    0.94618992    0.14437984    0.72211025    -0.13330000
opls_145-10    C    0.85561997    0.80179998    0.72211025    -0.13330000
opls_145-11    C    0.19819986    0.05381000    0.72211025    -0.13330000
opls_145-12    C    0.05983012    0.79440016    0.73834043    -0.17540000
opls_145-13    C    0.20560009    0.26543013    0.73834043    -0.17520000
opls_145-14    C    0.73456979    0.94016971    0.73834043    -0.17520000
opls_145-15    C    0.94016988    0.20559984    0.73834043    -0.17540000
opls_145-16    C    0.79439991    0.73456987    0.73834043    -0.17520000
opls_145-17    C    0.26542994    0.05982976    0.73834043    -0.17520000
opls_145-18    C    0.02553001    0.74771000    0.84115957    0.18820000
opls_145-19    C    0.25229003    0.27781974    0.84115957    0.18820000
opls_145-20    C    0.72217969    0.97446972    0.84115957    0.18820000
opls_145-21    C    0.97446999    0.25229000    0.84115957    0.18820000
opls_145-22    C    0.74770970    0.72217972    0.84115957    0.18820000
opls_145-23    C    0.27782004    0.02552975    0.84115957    0.18820000
opls_145-24    C    0.98867011    0.76529014    0.93238975    -0.17310000
opls_145-25    C    0.23471003    0.22338019    0.93238975    -0.17310000
opls_145-26    C    0.77662013    0.01133020    0.93238975    -0.17310000
opls_145-27    C    0.01132989    0.23470986    0.93238975    -0.17310000
opls_145-28    C    0.76528997    0.77661981    0.93238975    -0.17310000
opls_145-29    C    0.22337987    0.98866980    0.93238975    -0.17310000
opls_145-30    C    0.98551983    0.82820981    0.91796035    -0.13280000
opls_145-31    C    0.17178998    0.15731013    0.91796035    -0.13280000
opls_145-32    C    0.84269019    0.01448006    0.91796035    -0.13280000
opls_145-33    C    0.01448017    0.17179019    0.91796035    -0.13280000
opls_145-34    C    0.82821002    0.84268987    0.91796035    -0.13280000
opls_145-35    C    0.15730981    0.98551994    0.91796035    -0.13280000
opls_700-36    C    0.01512983    0.87254988    0.81020019    0.06780000
opls_700-37    C    0.12744998    0.14258007    0.81020019    0.06740000
opls_700-38    C    0.85742019    0.98487005    0.81020019    0.06780000
opls_700-39    C    0.98487017    0.12745012    0.81020019    0.06780000
opls_700-40    C    0.87255002    0.85741993    0.81020019    0.06740000
opls_700-41    C    0.14257981    0.01512995    0.81020019    0.06780000
opls_700-42    C    0.56936972    0.00870977    0.90224952    0.06580000
opls_700-43    C    0.99129002    0.56065978    0.90224952    0.06580000
opls_700-44    C    0.43933999    0.43062991    0.90224952    0.06670000
opls_700-45    C    0.43063001    0.99128969    0.90224952    0.06580000
opls_700-46    C    0.00870971    0.43933968    0.90224952    0.06580000
opls_700-47    C    0.56066001    0.56937009    0.90224952    0.06670000
opls_145-48    C    0.50863995    0.93992988    0.90253965    -0.13580000
opls_145-49    C    0.06006990    0.56871003    0.90253965    -0.13580000
opls_145-50    C    0.43129015    0.49136009    0.90253965    -0.13580000
opls_145-51    C    0.49136005    0.06007012    0.90253965    -0.13580000
opls_145-52    C    0.93993010    0.43128997    0.90253965    -0.13580000
opls_145-53    C    0.56870985    0.50863991    0.90253965    -0.13580000
opls_145-54    C    0.43982007    0.93131005    0.90417988    -0.13540000
opls_145-55    C    0.06869023    0.50852000    0.90417988    -0.13540000
opls_145-56    C    0.49147996    0.56018013    0.90417988    -0.13540000
opls_145-57    C    0.56017993    0.06868995    0.90417988    -0.13540000
opls_145-58    C    0.93130977    0.49148000    0.90417988    -0.13540000
opls_145-59    C    0.50852004    0.43981987    0.90417988    -0.13540000
opls_142-60    C    0.62358014    0.64229983    0.89814023    0.06660000
opls_142-61    C    0.35769988    0.98128015    0.89814023    0.06560000
opls_142-62    C    0.01871998    0.37642002    0.89814023    0.06540000
opls_142-63    C    0.37641986    0.35770017    0.89814023    0.06660000
opls_142-64    C    0.64230012    0.01871985    0.89814023    0.06560000
opls_142-65    C    0.98128002    0.62357998    0.89814023    0.06540000
opls_700-66    C    0.09919997    0.10676991    0.29505996    -0.03070000
opls_700-67    C    0.96741001    0.02952007    0.29505996    -0.03070000
opls_700-68    C    0.04465964    0.97496971    0.29505996    -0.03070000
opls_700-69    C    0.97497010    0.96740983    0.29505996    -0.03070000
opls_700-70    C    0.10677006    0.04466019    0.29505996    -0.03070000
opls_700-71    C    0.02951972    0.09919985    0.29505996    -0.03070000
opls_145-72    C    0.09089990    0.89270012    0.22211025    -0.13340000
opls_145-73    C    0.18146985    0.23527998    0.22211025    -0.13330000
opls_145-74    C    0.83888995    0.98328013    0.22211025    -0.13340000
opls_145-75    C    0.98328019    0.18146998    0.22211025    -0.13330000
opls_145-76    C    0.89270004    0.83889012    0.22211025    -0.13340000
opls_145-77    C    0.23527992    0.09090014    0.22211025    -0.13330000
opls_145-78    C    0.09690992    0.83148976    0.23834043    -0.17580000
opls_145-79    C    0.24269009    0.30251973    0.23834043    -0.17520000
opls_145-80    C    0.77166006    0.97725984    0.23834043    -0.17520000
opls_145-81    C    0.97726015    0.24268998    0.23834043    -0.17540000
opls_145-82    C    0.83149018    0.77166000    0.23834043    -0.17520000
opls_145-83    C    0.30252003    0.09691025    0.23834043    -0.17520000
opls_145-84    C    0.06262028    0.78480014    0.34115957    0.18820000
opls_145-85    C    0.28937983    0.31490988    0.34115957    0.18820000
opls_145-86    C    0.75926996    0.01155985    0.34115957    0.18820000
opls_145-87    C    0.01156025    0.28938013    0.34115957    0.18820000
opls_145-88    C    0.78479997    0.75926986    0.34115957    0.18820000
opls_145-89    C    0.31490985    0.06261988    0.34115957    0.18820000
opls_145-90    C    0.02575993    0.80237011    0.43238975    -0.17430000
opls_145-91    C    0.27180003    0.26046979    0.43238975    -0.17310000
opls_145-92    C    0.81370967    0.04841979    0.43238975    -0.17310000
opls_145-93    C    0.04842016    0.27179999    0.43238975    -0.17310000
opls_145-94    C    0.80237004    0.81370994    0.43238975    -0.17310000
opls_145-95    C    0.26047014    0.02575994    0.43238975    -0.17310000
opls_145-96    C    0.02259990    0.86529994    0.41796035    -0.13770000
opls_145-97    C    0.20888026    0.19439009    0.41796035    -0.13280000
opls_145-98    C    0.87978000    0.05157019    0.41796035    -0.13280000
opls_145-99    C    0.05156971    0.20887979    0.41796035    -0.13280000
opls_145-100    C    0.86529983    0.87978000    0.41796035    -0.13280000
opls_145-101    C    0.19438989    0.02259990    0.41796035    -0.13280000
opls_700-102    C    0.05222010    0.90964001    0.31020019    0.06780000
opls_700-103    C    0.16454025    0.17967021    0.31020019    0.06780000
opls_700-104    C    0.89450026    0.02196019    0.31020019    0.06790000
opls_700-105    C    0.02195971    0.16453972    0.31020019    0.06780000
opls_700-106    C    0.90963984    0.89449989    0.31020019    0.06780000
opls_700-107    C    0.17967008    0.05222008    0.31020019    0.06780000
opls_700-108    C    0.60644979    0.04579990    0.40225048    0.06580000
opls_700-109    C    0.02837982    0.59774991    0.40225048    0.06670000
opls_700-110    C    0.47642980    0.46772005    0.40225048    0.06580000
opls_700-111    C    0.46771982    0.02837983    0.40225048    0.06580000
opls_700-112    C    0.04579998    0.47642982    0.40225048    0.06580000
opls_700-113    C    0.59774983    0.60645005    0.40225048    0.06670000
opls_145-114    C    0.54572002    0.97702002    0.40253965    -0.13580000
opls_145-115    C    0.09716018    0.60578999    0.40253965    -0.13580000
opls_145-116    C    0.46837969    0.52844969    0.40253965    -0.13580000
opls_145-117    C    0.52845032    0.09716025    0.40253965    -0.13580000
opls_145-118    C    0.97701991    0.46838011    0.40253965    -0.13580000
opls_145-119    C    0.60578993    0.54571987    0.40253965    -0.13580000
opls_145-120    C    0.47690960    0.96839965    0.40417988    -0.13540000
opls_145-121    C    0.10578004    0.54559996    0.40417988    -0.13540000
opls_145-122    C    0.52856996    0.59726973    0.40417988    -0.13540000
opls_145-123    C    0.59727020    0.10578009    0.40417988    -0.13540000
opls_145-124    C    0.96840004    0.52857014    0.40417988    -0.13540000
opls_145-125    C    0.54560011    0.47691001    0.40417988    -0.13540000
opls_142-126    C    0.66066995    0.67938996    0.39814023    0.06560000
opls_142-127    C    0.39478988    0.01836975    0.39814023    0.06560000
opls_142-128    C    0.05581025    0.41351016    0.39814023    0.06660000
opls_142-129    C    0.41350986    0.39478977    0.39814023    0.06660000
opls_142-130    C    0.67938993    0.05580998    0.39814023    0.06660000
opls_142-131    C    0.01836983    0.66067011    0.39814023    0.06540000
opls_146-132    H    0.51477980    0.89307003    0.90170019    0.10860000
opls_146-133    H    0.10693014    0.62171008    0.90170019    0.10860000
opls_146-134    H    0.37829006    0.48521989    0.90170019    0.10860000
opls_146-135    H    0.48522020    0.10692997    0.90170019    0.10860000
opls_146-136    H    0.89306986    0.37828992    0.90170019    0.10860000
opls_146-137    H    0.62170994    0.51478011    0.90170019    0.10860000
opls_146-138    H    0.39372002    0.87781000    0.90405996    0.11280000
opls_146-139    H    0.12219014    0.51591019    0.90405996    0.10860000
opls_146-140    H    0.48408984    0.60627981    0.90405996    0.11170000
opls_146-141    H    0.60627998    0.12219000    0.90405996    0.11280000
opls_146-142    H    0.87780986    0.48408981    0.90405996    0.10870000
opls_146-143    H    0.51591016    0.39372019    0.90405996    0.11180000
opls_146-144    H    0.07988996    0.88977991    0.64194004    0.23640000
opls_146-145    H    0.11022012    0.19011015    0.64194004    0.23640000
opls_146-146    H    0.80988992    0.92010993    0.64194004    0.23640000
opls_146-147    H    0.92011004    0.11022009    0.64194004    0.23640000
opls_146-148    H    0.88977988    0.80988985    0.64194004    0.23640000
opls_146-149    H    0.19011008    0.07989007    0.64194004    0.23640000
opls_146-150    H    0.08975018    0.78203999    0.66911025    0.11340000
opls_146-151    H    0.21795964    0.30770973    0.66911025    0.11350000
opls_146-152    H    0.69228992    0.91024975    0.66911025    0.11340000
opls_146-153    H    0.91024982    0.21796001    0.66911025    0.11340000
opls_146-154    H    0.78204009    0.69228974    0.66911025    0.11340000
opls_146-155    H    0.30771008    0.08975025    0.66911025    0.11340000
opls_146-156    H    0.96436011    0.73164002    0.01605996    0.11660000
opls_146-157    H    0.26836004    0.23270987    0.01605996    0.11660000
opls_146-158    H    0.76729006    0.03563993    0.01605996    0.11370000
opls_146-159    H    0.03563989    0.26835998    0.01605996    0.11660000
opls_146-160    H    0.73163996    0.76729013    0.01605996    0.11660000
opls_146-161    H    0.23270994    0.96436007    0.01605996    0.11370000
opls_146-162    H    0.96092987    0.84402016    0.99046035    0.10570000
opls_146-163    H    0.15598029    0.11692024    0.99046035    0.10560000
opls_146-164    H    0.88308009    0.03906977    0.99046035    0.10560000
opls_146-165    H    0.03907013    0.15597984    0.99046035    0.10560000
opls_146-166    H    0.84401971    0.88307976    0.99046035    0.10560000
opls_146-167    H    0.11691964    0.96092969    0.99046035    0.10560000
opls_144-168    H    0.61677997    0.68712972    0.92500967    0.10230000
opls_144-169    H    0.31286969    0.92965963    0.92500967    0.10050000
opls_144-170    H    0.07034005    0.38321975    0.92500967    0.10370000
opls_144-171    H    0.38321976    0.31286974    0.92500967    0.11260000
opls_144-172    H    0.68713005    0.07033983    0.92500967    0.10050000
opls_144-173    H    0.92965968    0.61677972    0.92500967    0.10370000
opls_146-174    H    0.55187007    0.93016016    0.40170019    0.11100000
opls_146-175    H    0.14401968    0.65879968    0.40170019    0.11100000
opls_146-176    H    0.41537986    0.52231002    0.40170019    0.10860000
opls_146-177    H    0.52231000    0.14402010    0.40170019    0.10860000
opls_146-178    H    0.93016012    0.41538005    0.40170019    0.10860000
opls_146-179    H    0.65879995    0.55186971    0.40170019    0.11100000
opls_146-180    H    0.43081029    0.91490013    0.40405996    0.11280000
opls_146-181    H    0.15927968    0.55299979    0.40405996    0.11280000
opls_146-182    H    0.52118011    0.64336995    0.40405996    0.11180000
opls_146-183    H    0.64337025    0.15928014    0.40405996    0.11280000
opls_146-184    H    0.91490013    0.52117995    0.40405996    0.10860000
opls_146-185    H    0.55299970    0.43080978    0.40405996    0.11280000
opls_146-186    H    0.11698022    0.92687004    0.14194004    0.23640000
opls_146-187    H    0.14730994    0.22719012    0.14194004    0.23640000
opls_146-188    H    0.84698019    0.95720007    0.14194004    0.23640000
opls_146-189    H    0.95720031    0.14731022    0.14194004    0.23640000
opls_146-190    H    0.92687015    0.84697998    0.14194004    0.23640000
opls_146-191    H    0.22719015    0.11698020    0.14194004    0.23640000
opls_146-192    H    0.12683025    0.81913013    0.16911025    0.11340000
opls_146-193    H    0.25505019    0.34479022    0.16911025    0.11310000
opls_146-194    H    0.72937972    0.94733988    0.16911025    0.11340000
opls_146-195    H    0.94734009    0.25505014    0.16911025    0.11340000
opls_146-196    H    0.81912990    0.72937987    0.16911025    0.11340000
opls_146-197    H    0.34479017    0.12683022    0.16911025    0.11310000
opls_146-198    H    0.00144992    0.76873016    0.51605996    0.11370000
opls_146-199    H    0.30544011    0.26980001    0.51605996    0.11370000
opls_146-200    H    0.80437987    0.07273007    0.51605996    0.11370000
opls_146-201    H    0.07273017    0.30543994    0.51605996    0.11370000
opls_146-202    H    0.76872996    0.80437972    0.51605996    0.11370000
opls_146-203    H    0.26980020    0.00145020    0.51605996    0.11370000
opls_146-204    H    0.99802016    0.88110012    0.49046035    0.10560000
opls_146-205    H    0.19306983    0.15400984    0.49046035    0.10560000
opls_146-206    H    0.92016991    0.07614974    0.49046035    0.10560000
opls_146-207    H    0.07615020    0.19306998    0.49046035    0.10560000
opls_146-208    H    0.88109978    0.92016989    0.49046035    0.10560000
opls_146-209    H    0.15400991    0.99801983    0.49046035    0.10560000
opls_144-210    H    0.65386979    0.72420968    0.42500967    0.10370000
opls_144-211    H    0.34995996    0.96674977    0.42500967    0.10050000
opls_144-212    H    0.10742987    0.42029971    0.42500967    0.10050000
opls_144-213    H    0.42029983    0.34995988    0.42500967    0.10050000
opls_144-214    H    0.72421011    0.10742996    0.42500967    0.10370000
opls_144-215    H    0.96674995    0.65386985    0.42500967    0.10370000
opls_750-216    N    0.68443009    0.65323014    0.85252998    -0.36480000
opls_750-217    N    0.34677011    0.03119993    0.85252998    -0.36480000
opls_750-218    N    0.96879980    0.31556993    0.85252998    -0.36480000
opls_750-219    N    0.31556991    0.34676986    0.85252998    -0.36480000
opls_750-220    N    0.65322989    0.96880007    0.85252998    -0.36480000
opls_750-221    N    0.03120020    0.68443007    0.85252998    -0.36480000
opls_750-222    N    0.72152009    0.69031973    0.35252998    -0.36480000
opls_750-223    N    0.38385991    0.06829006    0.35252998    -0.36480000
opls_750-224    N    0.00587989    0.35264990    0.35252998    -0.36480000
opls_750-225    N    0.35264998    0.38386000    0.35252998    -0.36480000
opls_750-226    N    0.69032017    0.00588003    0.35252998    -0.36480000
opls_750-227    N    0.06828974    0.72151966    0.35252998    -0.36480000
