#======================================================================
# Crystal Data Generated By AuToFF
#----------------------------------------------------------------------

data_AuToFF_phase_1

_cell_length_a                         25.2000
_cell_length_b                         24.6000
_cell_length_c                         4.1000
_cell_angle_alpha                      90.10
_cell_angle_beta                       89.70
_cell_angle_gamma                      88.40
_symmetry_space_group_name_H-M_alt     'P 1'
_symmetry_space_group_IT_number        1

loop_
_space_group_symop_operation_xyz
   'x, y, z'

loop_
   _atom_site_label
   _atom_site_type_symbol
   _atom_site_fract_x
   _atom_site_fract_y
   _atom_site_fract_z
   _atom_site_charge
opls_145-0    C    0.29793987    0.01200020    0.67781968    0.22040000
opls_145-1    C    0.27430976    0.04761997    0.90523032    -0.15960000
opls_145-2    C    0.22125981    0.04290999    0.97993873    -0.13140000
opls_145-3    C    0.45680990    0.02666986    0.43464051    -0.13300000
opls_700-4    C    0.18909000    0.00765018    0.80424835    0.06830000
opls_700-5    C    0.13179010    0.00666999    0.85924916    -0.06710000
opls_145-6    C    0.21304016    0.97377993    0.56673024    -0.12770000
opls_145-7    C    0.26714015    0.97413013    0.51409045    -0.17450000
opls_142-8    C    0.37993988    0.97248996    0.57433036    0.05060000
opls_166-9    C    0.46972993    0.93024016    0.55759840    0.09240000
opls_700-10    C    0.43592014    0.97601017    0.51421972    -0.00320000
opls_543-11    C    0.10864004    0.95567018    0.87003956    0.18240000
opls_716-12    C    0.13420000    0.90340994    0.84419040    -0.16470000
opls_543-13    C    0.04567011    0.89310004    0.90543032    0.18290000
opls_716-14    C    0.09566017    0.86550000    0.85177832    -0.16140000
opls_145-15    C    0.68410008    0.98864996    0.78966034    0.21370000
opls_145-16    C    0.71221999    0.95806012    0.02205886    -0.19040000
opls_145-17    C    0.76559008    0.96554985    0.07045957    -0.13320000
opls_166-18    C    0.52516020    0.93607982    0.55368859    0.11230000
opls_700-19    C    0.79413991    0.00139002    0.87514939    0.06840000
opls_700-20    C    0.85185977    0.00314990    0.90173027    -0.07220000
opls_145-21    C    0.76547007    0.03298011    0.64747045    -0.11550000
opls_145-22    C    0.71137984    0.02776006    0.60970892    -0.16730000
opls_142-23    C    0.59988985    0.00294018    0.56061064    0.07040000
opls_145-24    C    0.51071984    0.03239022    0.42766967    -0.12610000
opls_700-25    C    0.54564985    0.98860007    0.50786841    -0.05350000
opls_543-26    C    0.87529977    0.05423017    0.89458870    0.17540000
opls_716-27    C    0.85011992    0.10627005    0.84975878    -0.17500000
opls_543-28    C    0.93887991    0.11664014    0.88773982    0.17600000
opls_716-29    C    0.88890988    0.14371991    0.82879018    -0.16140000
opls_145-30    C    0.97831982    0.31326005    0.75555008    0.20870000
opls_145-31    C    0.94331003    0.28964015    0.97680942    -0.16150000
opls_145-32    C    0.94828017    0.23457012    0.04193964    -0.11990000
opls_145-33    C    0.97062000    0.47556009    0.43913082    -0.13300000
opls_700-34    C    0.98544000    0.20135999    0.87302985    0.06790000
opls_700-35    C    0.98776991    0.14208998    0.91247921    -0.06500000
opls_145-36    C    0.01903989    0.22536007    0.64516066    -0.13550000
opls_145-37    C    0.01668986    0.28055012    0.59310868    -0.18130000
opls_142-38    C    0.01760000    0.39343999    0.64312892    0.08820000
opls_166-39    C    0.06543983    0.47730008    0.56373020    0.09620000
opls_700-40    C    0.01773004    0.44914008    0.54364942    -0.00330000
opls_507-41    C    0.03788984    0.11587021    0.93890886    0.17270000
opls_716-42    C    0.08666011    0.14570988    0.94789924    -0.16910000
opls_507-43    C    0.10266972    0.05606992    0.89334966    0.20580000
opls_716-44    C    0.12670973    0.10889026    0.89898877    -0.17020000
opls_145-45    C    0.01645006    0.69828022    0.80114831    0.21370000
opls_145-46    C    0.04679006    0.72429993    0.03635907    -0.17670000
opls_145-47    C    0.03768025    0.77881985    0.10432104    -0.12540000
opls_166-48    C    0.06489007    0.53382001    0.52097836    0.09970000
opls_700-49    C    0.99964985    0.80920001    0.92913799    0.07720000
opls_700-50    C    0.99671016    0.86853010    0.94860900    -0.06400000
opls_145-51    C    0.96806016    0.78228006    0.70326883    -0.13300000
opls_145-52    C    0.97518983    0.72756014    0.64588018    -0.18220000
opls_142-53    C    0.00488984    0.61752985    0.51575877    0.06240000
opls_145-54    C    0.97029016    0.53059999    0.39193013    -0.12770000
opls_700-55    C    0.01582984    0.56079014    0.45868964    -0.00700000
opls_507-56    C    0.94649012    0.89415982    0.97379962    0.19340000
opls_716-57    C    0.89809991    0.86370011    0.98708030    -0.16720000
opls_507-58    C    0.88105010    0.95341018    0.93006971    0.20850000
opls_716-59    C    0.85769002    0.90012021    0.93878935    -0.17200000
opls_181-60    C    0.60072995    0.87875980    0.39224964    -0.19310000
opls_181-61    C    0.45527984    0.84804986    0.86390045    -0.19070000
opls_181-62    C    0.12272008    0.60461997    0.34832949    -0.18980000
opls_181-63    C    0.14238998    0.45658021    0.89619848    -0.18820000
opls_750-64    N    0.35155974    0.01668011    0.61608950    -0.27070000
opls_542-65    N    0.05532018    0.94757022    0.90981819    -0.25130000
opls_750-66    N    0.63172006    0.97434988    0.74395967    -0.28620000
opls_542-67    N    0.92885977    0.06241012    0.92016956    -0.25340000
opls_750-68    N    0.97355981    0.36836005    0.68874910    -0.26600000
opls_542-69    N    0.04845007    0.06107021    0.91899881    -0.41220000
opls_750-70    N    0.03142987    0.64475006    0.72788870    -0.28340000
opls_542-71    N    0.93531004    0.94879006    0.94929926    -0.41220000
opls_179-72    O    0.55461000    0.88922004    0.59475992    -0.17250000
opls_179-73    O    0.44750989    0.88024997    0.57444987    -0.17220000
opls_179-74    O    0.11270009    0.55766000    0.54483968    -0.14030000
opls_179-75    O    0.11209991    0.44853006    0.60411860    -0.17220000
opls_146-76    H    0.29937991    0.07534997    0.03822007    0.10570000
opls_146-77    H    0.20434004    0.06545999    0.18531003    0.11290000
opls_146-78    H    0.42940981    0.06080009    0.39035937    0.10960000
opls_146-79    H    0.18835021    0.94920014    0.41115968    0.11020000
opls_146-80    H    0.28540020    0.94960984    0.32028030    0.10770000
opls_144-81    H    0.36340988    0.93191002    0.60688937    0.06570000
opls_547-82    H    0.17641002    0.89553017    0.81623877    0.12020000
opls_547-83    H    0.10164987    0.82219016    0.81999980    0.12300000
opls_146-84    H    0.69050003    0.92940993    0.17026103    0.10860000
opls_146-85    H    0.78571023    0.94435983    0.26874052    0.11110000
opls_146-86    H    0.78697004    0.05816987    0.47693869    0.11050000
opls_146-87    H    0.69156000    0.05036000    0.41533047    0.10950000
opls_144-88    H    0.61115981    0.04197018    0.45155051    0.06130000
opls_146-89    H    0.52784003    0.07161985    0.37390059    0.10620000
opls_547-90    H    0.80793995    0.11420007    0.82685844    0.12010000
opls_547-91    H    0.88332974    0.18648023    0.77516988    0.11610000
opls_146-92    H    0.91488003    0.31591026    0.10730889    0.10650000
opls_146-93    H    0.92369011    0.21644985    0.22944970    0.10780000
opls_146-94    H    0.93532012    0.45162008    0.40887915    0.10960000
opls_146-95    H    0.04548001    0.19946018    0.49839998    0.11050000
opls_146-96    H    0.04104980    0.29834020    0.40307907    0.10650000
opls_144-97    H    0.05632992    0.37330008    0.68967839    0.06510000
opls_547-98    H    0.09025987    0.18915008    0.98042898    0.11320000
opls_547-99    H    0.16818995    0.11776002    0.86946882    0.12030000
opls_146-100    H    0.07710998    0.70051985    0.16499998    0.10920000
opls_146-101    H    0.06035002    0.79893012    0.29242867    0.10860000
opls_146-102    H    0.94017994    0.80609983    0.55611058    0.10960000
opls_146-103    H    0.95157017    0.70899000    0.45680912    0.11050000
opls_144-104    H    0.96913014    0.63390984    0.39342039    0.06490000
opls_146-105    H    0.93391987    0.55299988    0.32651941    0.10730000
opls_547-106    H    0.89499992    0.82021010    0.01836856    0.11600000
opls_547-107    H    0.81624006    0.89103022    0.90957916    0.12160000
opls_185-108    H    0.60138013    0.90629010    0.18105875    0.09650000
opls_185-109    H    0.59817992    0.83648997    0.30816061    0.09960000
opls_185-110    H    0.63676987    0.88391004    0.53740055    0.09960000
opls_185-111    H    0.49264979    0.85720020    0.98509978    0.11070000
opls_185-112    H    0.45602019    0.80525012    0.78617004    0.10010000
opls_185-113    H    0.42209010    0.85608995    0.03385903    0.10110000
opls_185-114    H    0.11874001    0.64144983    0.49925853    0.09960000
opls_185-115    H    0.09521986    0.60774980    0.14132890    0.10240000
opls_185-116    H    0.16359984    0.59931990    0.25799890    0.10230000
opls_185-117    H    0.18448006    0.45524003    0.82589013    0.09970000
opls_185-118    H    0.13422995    0.42377994    0.06863027    0.10830000
opls_185-119    H    0.13258998    0.49582011    0.01157822    0.11490000
opls_545-120    H    0.95588006    0.03051997    0.94826022    0.26880000
opls_545-121    H    0.02817007    0.97956003    0.93077947    0.26880000
