#======================================================================
# Crystal Data Generated By AuToFF
#----------------------------------------------------------------------

data_AuToFF_phase_1

_cell_length_a                         18.4996
_cell_length_b                         18.4996
_cell_length_c                         3.5434
_cell_angle_alpha                      90.00
_cell_angle_beta                       90.00
_cell_angle_gamma                      120.00
_symmetry_space_group_name_H-M_alt     'P 1'
_symmetry_space_group_IT_number        1

loop_
_space_group_symop_operation_xyz
   'x, y, z'

loop_
   _atom_site_label
   _atom_site_type_symbol
   _atom_site_fract_x
   _atom_site_fract_y
   _atom_site_fract_z
   _atom_site_charge
opls_520-0    N    0.71493978    0.41521005    0.00000000    -0.46150000
opls_238-1    N    0.49269993    0.59091999    0.00000000    -0.25110000
opls_520-2    N    0.58479007    0.29972998    0.00000000    -0.46150000
opls_238-3    N    0.40908004    0.90178028    0.00000000    -0.25110000
opls_520-4    N    0.70027015    0.28505997    0.00000000    -0.46150000
opls_238-5    N    0.09822033    0.50730036    0.00000000    -0.25110000
opls_531-6    C    0.63281019    0.38196019    0.00000000    0.33860000
opls_700-7    C    0.56495006    0.16080024    0.00000000    0.03000000
opls_523-8    C    0.64525010    0.52033004    0.00000000    -0.21330000
opls_145-9    C    0.61029009    0.57014990    0.00000000    -0.22130000
opls_916-10    C    0.52531002    0.53645001    0.00000000    0.18310000
opls_145-11    C    0.47577993    0.45087984    0.00000000    -0.22120000
opls_523-12    C    0.51074012    0.40099007    0.00000000    -0.21380000
opls_142-13    C    0.15889036    0.59314018    0.00000000    0.10370000
opls_145-14    C    0.37440975    0.61609987    0.00000000    -0.14410000
opls_280-15    C    0.42303972    0.70694995    0.00000000    0.25690000
opls_531-16    C    0.61804004    0.25085013    0.00000000    0.33860000
opls_700-17    C    0.83920026    0.40415027    0.00000000    0.03000000
opls_523-18    C    0.47967015    0.12492011    0.00000000    -0.21330000
opls_145-19    C    0.42985028    0.04014014    0.00000000    -0.22130000
opls_916-20    C    0.46355004    0.98886033    0.00000000    0.18310000
opls_145-21    C    0.54912011    0.02490026    0.00000000    -0.22120000
opls_523-22    C    0.59901007    0.10975013    0.00000000    -0.21380000
opls_142-23    C    0.40685989    0.56575008    0.00000000    0.10370000
opls_145-24    C    0.38390011    0.75831028    0.00000000    -0.14410000
opls_280-25    C    0.29305027    0.71609039    0.00000000    0.25690000
opls_531-26    C    0.74915009    0.36719031    0.00000000    0.33860000
opls_700-27    C    0.59584999    0.43505011    0.00000000    0.03000000
opls_523-28    C    0.87507974    0.35474986    0.00000000    -0.21330000
opls_145-29    C    0.95986017    0.38970996    0.00000000    -0.22130000
opls_916-30    C    0.01114025    0.47469028    0.00000000    0.18310000
opls_145-31    C    0.97509996    0.52421990    0.00000000    -0.22110000
opls_523-32    C    0.89024981    0.48925980    0.00000000    -0.21380000
opls_142-33    C    0.43425007    0.84111036    0.00000000    0.10370000
opls_145-34    C    0.24169014    0.62558985    0.00000000    -0.14410000
opls_280-35    C    0.28391032    0.57696029    0.00000000    0.25700000
opls_526-36    H    0.71105005    0.54847039    0.00000000    0.21600000
opls_146-37    H    0.64977030    0.63566030    0.00000000    0.21600000
opls_146-38    H    0.41026978    0.42104984    0.00000000    0.21610000
opls_526-39    H    0.47107010    0.33545033    0.00000000    0.21600000
opls_144-40    H    0.13713980    0.63599986    0.00000000    0.10610000
opls_910-41    H    0.53633990    0.65253990    0.00000000    0.23700000
opls_526-42    H    0.45152978    0.16257977    0.00000000    0.21600000
opls_146-43    H    0.36434008    0.01411012    0.00000000    0.21600000
opls_146-44    H    0.57895013    0.98921985    0.00000000    0.21610000
opls_526-45    H    0.66454980    0.13561973    0.00000000    0.21600000
opls_144-46    H    0.36400020    0.50114037    0.00000000    0.10610000
opls_910-47    H    0.34746025    0.88380026    0.00000000    0.23750000
opls_526-48    H    0.83742017    0.28894984    0.00000000    0.21600000
opls_146-49    H    0.98588993    0.35023020    0.00000000    0.21600000
opls_146-50    H    0.01078009    0.58973031    0.00000000    0.21610000
opls_526-51    H    0.86438010    0.52892994    0.00000000    0.21600000
opls_144-52    H    0.49886031    0.86286040    0.00000000    0.10610000
opls_910-53    H    0.11619985    0.46365984    0.00000000    0.23690000
opls_281-54    O    0.49716010    0.74156988    0.00000000    -0.39340000
opls_281-55    O    0.25843032    0.75559012    0.00000000    -0.39340000
opls_281-56    O    0.24441012    0.50284000    0.00000000    -0.39340000
