#======================================================================
# Crystal Data Generated By AuToFF
#----------------------------------------------------------------------

data_AuToFF_phase_1

_cell_length_a                         37.9600
_cell_length_b                         37.1622
_cell_length_c                         7.2139
_cell_angle_alpha                      89.20
_cell_angle_beta                       85.96
_cell_angle_gamma                      60.34
_symmetry_space_group_name_H-M_alt     'P 1'
_symmetry_space_group_IT_number        1

loop_
_space_group_symop_operation_xyz
   'x, y, z'

loop_
   _atom_site_label
   _atom_site_type_symbol
   _atom_site_fract_x
   _atom_site_fract_y
   _atom_site_fract_z
   _atom_site_charge
opls_700-0    C    0.84865989    0.31922986    0.97102966    0.06900000
opls_145-1    C    0.86489987    0.34595981    0.94797961    -0.12190000
opls_700-2    C    0.83926987    0.38919980    0.94962962    0.06570000
opls_145-3    C    0.79698982    0.40528002    0.96804936    -0.14240000
opls_700-4    C    0.77999004    0.37940976    0.99900054    0.06530000
opls_145-5    C    0.80625001    0.33639011    0.00297057    -0.12190000
opls_700-6    C    0.87523979    0.27371993    0.96123944    0.07270000
opls_145-7    C    0.91619009    0.25425996    0.00553941    -0.12550000
opls_145-8    C    0.85972991    0.24832988    0.90507944    -0.11550000
opls_145-9    C    0.94049002    0.21129977    0.99867944    -0.12550000
opls_145-10    C    0.88362987    0.20547997    0.90128039    -0.12550000
opls_700-11    C    0.92450983    0.18591993    0.94822009    0.10140000
opls_700-12    C    0.85581980    0.41786983    0.94260006    0.07330000
opls_145-13    C    0.83308005    0.45756000    0.02826974    -0.12570000
opls_145-14    C    0.89496988    0.40593000    0.86055983    -0.12550000
opls_145-15    C    0.84952981    0.48359020    0.04100969    -0.12040000
opls_145-16    C    0.91127982    0.43214981    0.87014989    -0.13890000
opls_700-17    C    0.88925977    0.47059994    0.96598929    0.07450000
opls_700-18    C    0.73539993    0.39811997    0.02945964    0.07270000
opls_145-19    C    0.71199985    0.43898003    0.10251032    -0.12790000
opls_145-20    C    0.71490986    0.37659003    0.98737960    -0.12550000
opls_145-21    C    0.67002990    0.45752007    0.12954012    -0.12540000
opls_145-22    C    0.67282000    0.39494012    0.01623039    -0.12550000
opls_700-23    C    0.64942981    0.43600017    0.08760048    0.10270000
opls_142-24    C    0.94618005    0.14082990    0.94539965    -0.09140000
opls_700-25    C    0.98695004    0.11278988    0.94208991    0.00360000
opls_423-26    C    0.01741986    0.12533982    0.94223030    0.25400000
opls_700-27    C    0.00184990    0.06783984    0.93645041    0.07260000
opls_145-28    C    0.04150988    0.03930998    0.98482049    -0.12570000
opls_145-29    C    0.97691983    0.05187997    0.88465939    -0.11790000
opls_145-30    C    0.05488975    0.99701993    0.98965931    -0.12560000
opls_145-31    C    0.99023005    0.00972975    0.88975953    -0.11550000
opls_700-32    C    0.02930963    0.98130010    0.94496039    0.07310000
opls_700-33    C    0.04118969    0.93719006    0.95900004    -0.00330000
opls_142-34    C    0.08049970    0.90612995    0.97309947    -0.09350000
opls_423-35    C    0.00803969    0.92852003    0.95288932    0.25470000
opls_700-36    C    0.09534987    0.86202002    0.99700997    0.12130000
opls_145-37    C    0.13713973    0.83400997    0.95416957    -0.12560000
opls_145-38    C    0.07064998    0.84559996    0.06715958    -0.11790000
opls_145-39    C    0.15317983    0.79156990    0.97442003    -0.12550000
opls_145-40    C    0.08695996    0.80325005    0.09098946    -0.11790000
opls_700-41    C    0.12840000    0.77515995    0.04311008    0.07280000
opls_700-42    C    0.14514969    0.73019023    0.06911957    0.06890000
opls_145-43    C    0.18665971    0.70451021    0.09554053    -0.13380000
opls_145-44    C    0.11997997    0.71223993    0.07039982    -0.14540000
opls_700-45    C    0.20291991    0.66203001    0.12964021    0.06590000
opls_700-46    C    0.13536994    0.66997009    0.10705027    0.06590000
opls_145-47    C    0.17674990    0.64534018    0.13872011    -0.13680000
opls_700-48    C    0.24674989    0.63549015    0.15314064    0.07290000
opls_700-49    C    0.10921971    0.65089020    0.10621067    0.07300000
opls_145-50    C    0.26684974    0.59266014    0.10938002    -0.13430000
opls_145-51    C    0.27006999    0.65245996    0.21422981    -0.12240000
opls_145-52    C    0.12618997    0.60907003    0.04885938    -0.12390000
opls_145-53    C    0.06701988    0.67359995    0.15496997    -0.12550000
opls_145-54    C    0.30857985    0.56834000    0.12084944    -0.12560000
opls_145-55    C    0.31172973    0.62822012    0.22686967    -0.12120000
opls_145-56    C    0.10203994    0.59103018    0.03273046    -0.11920000
opls_145-57    C    0.04270986    0.65567003    0.13791943    -0.12890000
opls_700-58    C    0.33212985    0.58563997    0.17688017    0.10580000
opls_700-59    C    0.05947985    0.61423010    0.07272957    0.12120000
opls_700-60    C    0.91106984    0.49346001    0.00641932    -0.02780000
opls_700-61    C    0.91610983    0.51817008    0.87313019    -0.04770000
opls_423-62    C    0.88780980    0.53409995    0.73045951    0.25100000
opls_700-63    C    0.94826000    0.52959988    0.87630927    0.07220000
opls_145-64    C    0.94010972    0.57085010    0.86029989    -0.12550000
opls_145-65    C    0.98836977    0.49826009    0.90428015    -0.12550000
opls_145-66    C    0.96997996    0.58091001    0.89332922    -0.12970000
opls_145-67    C    0.01832999    0.50828982    0.93331026    -0.13890000
opls_700-68    C    0.00921002    0.55004985    0.93702034    0.07310000
opls_700-69    C    0.04075001    0.55993983    0.98291055    -0.00330000
opls_142-70    C    0.03180990    0.59893001    0.03836995    -0.09330000
opls_423-71    C    0.08162988    0.52493008    0.97243919    0.24970000
opls_142-72    C    0.37589991    0.55861016    0.17421958    -0.09040000
opls_700-73    C    0.40547991    0.56785992    0.21173048    0.00360000
opls_423-74    C    0.39699992    0.60870989    0.26878985    0.25010000
opls_700-75    C    0.44900978    0.53657006    0.19058064    0.07130000
opls_145-76    C    0.47784995    0.54957001    0.14995044    -0.12350000
opls_145-77    C    0.46303998    0.49369989    0.20519022    -0.12560000
opls_145-78    C    0.51892999    0.52082012    0.11989030    -0.13430000
opls_145-79    C    0.50426989    0.46492999    0.17688017    -0.12550000
opls_700-80    C    0.53304999    0.47791001    0.13329052    0.07290000
opls_700-81    C    0.57664007    0.44744997    0.10049055    0.00430000
opls_142-82    C    0.60542991    0.45893003    0.11947050    -0.09190000
opls_423-83    C    0.58636979    0.40596008    0.04847016    0.25390000
opls_700-84    C    0.88525979    0.30104008    0.46958052    0.06940000
opls_145-85    C    0.90516997    0.32427986    0.43364040    -0.08710000
opls_700-86    C    0.88285995    0.36773997    0.42065024    0.07240000
opls_145-87    C    0.83997983    0.38759008    0.43844029    -0.08780000
opls_700-88    C    0.81916989    0.36556004    0.48052033    0.07500000
opls_145-89    C    0.84250984    0.32231998    0.49827006    -0.12340000
opls_700-90    C    0.90787993    0.25501987    0.47281937    0.07190000
opls_145-91    C    0.94862988    0.23191982    0.51988974    -0.11710000
opls_145-92    C    0.88880003    0.23246992    0.42337060    -0.12550000
opls_145-93    C    0.96953999    0.18869009    0.51484937    -0.12450000
opls_145-94    C    0.90930989    0.18939984    0.42129940    -0.12970000
opls_700-95    C    0.95045978    0.16622005    0.46384928    0.11810000
opls_700-96    C    0.90248991    0.39372999    0.38853002    0.07200000
opls_145-97    C    0.88244989    0.43462013    0.46274001    -0.12550000
opls_145-98    C    0.93962989    0.38070995    0.28198991    -0.16540000
opls_145-99    C    0.89623982    0.46225993    0.41689012    -0.13760000
opls_145-100    C    0.95297976    0.40875013    0.23055056    -0.17190000
opls_700-101    C    0.93035985    0.45070987    0.28920990    0.06570000
opls_700-102    C    0.77405001    0.38699995    0.50786985    0.07160000
opls_145-103    C    0.75098987    0.42903008    0.56671963    -0.12260000
opls_145-104    C    0.75219986    0.36612993    0.47887032    -0.13760000
opls_145-105    C    0.70882981    0.44859005    0.59689932    -0.16850000
opls_145-106    C    0.70998997    0.38567990    0.50787958    -0.12560000
opls_700-107    C    0.68689988    0.42763995    0.56866989    0.11690000
opls_142-108    C    0.96897993    0.12108988    0.45840023    -0.09520000
opls_700-109    C    0.00907997    0.09065002    0.45055054    -0.00460000
opls_423-110    C    0.04166992    0.10034999    0.44128019    0.25550000
opls_700-111    C    0.02209998    0.04595986    0.45010988    0.06800000
opls_145-112    C    0.06178984    0.01671006    0.49595005    -0.12560000
opls_145-113    C    0.99614998    0.03059004    0.40658001    -0.12560000
opls_145-114    C    0.07464987    0.97452002    0.50119059    -0.12260000
opls_145-115    C    0.00898986    0.98843016    0.41189979    -0.12560000
opls_700-116    C    0.04855987    0.95919998    0.45949004    0.07360000
opls_700-117    C    0.06073987    0.91482020    0.46977930    -0.00510000
opls_142-118    C    0.10040989    0.88358015    0.47269983    -0.09520000
opls_423-119    C    0.02756983    0.90604994    0.47111932    0.25620000
opls_700-120    C    0.11671991    0.83901999    0.49332977    0.11820000
opls_145-121    C    0.15880983    0.81239989    0.44891026    -0.15570000
opls_145-122    C    0.09386996    0.82061000    0.56485972    -0.12570000
opls_145-123    C    0.17710967    0.76984010    0.47454027    -0.12550000
opls_145-124    C    0.11230972    0.77805998    0.59098043    -0.12560000
opls_700-125    C    0.15435998    0.75153995    0.54800936    0.07220000
opls_700-126    C    0.17345989    0.70640992    0.58146960    0.07400000
opls_145-127    C    0.21457982    0.68259995    0.62033025    -0.09140000
opls_145-128    C    0.15052990    0.68623008    0.57140971    -0.12460000
opls_700-129    C    0.23300996    0.63950994    0.64726970    0.07230000
opls_700-130    C    0.16734992    0.64356008    0.60413044    0.06820000
opls_145-131    C    0.20858983    0.62066007    0.64330941    -0.09190000
opls_700-132    C    0.27754996    0.61482001    0.66788992    0.07350000
opls_700-133    C    0.14127987    0.62437995    0.58930957    0.07160000
opls_145-134    C    0.30010993    0.57226003    0.61739026    -0.12260000
opls_145-135    C    0.29986982    0.63311996    0.72859961    -0.13310000
opls_145-136    C    0.15682976    0.58293999    0.52802996    -0.15570000
opls_145-137    C    0.09879992    0.64826984    0.63040961    -0.12580000
opls_145-138    C    0.34221979    0.54989996    0.62353991    -0.17190000
opls_145-139    C    0.34203003    0.61096983    0.73324937    -0.12560000
opls_145-140    C    0.13150993    0.56612992    0.50812006    -0.17510000
opls_145-141    C    0.07346995    0.63175000    0.60889975    -0.13310000
opls_700-142    C    0.36470987    0.56862006    0.67813053    0.11650000
opls_700-143    C    0.08894982    0.59019984    0.54757010    0.11690000
opls_700-144    C    0.92937991    0.48647007    0.18587945    -0.02830000
opls_700-145    C    0.93033989    0.52052017    0.26438057    -0.04320000
opls_423-146    C    0.89865008    0.56074990    0.20980941    0.24660000
opls_700-147    C    0.96112991    0.52230993    0.36873967    0.07270000
opls_145-148    C    0.95596994    0.56212994    0.40701927    -0.12970000
opls_145-149    C    0.99994982    0.48777989    0.39445031    -0.16770000
opls_145-150    C    0.98828999    0.56743988    0.44788022    -0.12550000
opls_145-151    C    0.03223991    0.49323988    0.43834021    -0.16690000
opls_700-152    C    0.02784983    0.53320004    0.45965963    0.07170000
opls_700-153    C    0.06312988    0.53880010    0.48692019    -0.00370000
opls_142-154    C    0.05908984    0.57692988    0.52529987    -0.09490000
opls_423-155    C    0.10249976    0.50162009    0.47008928    0.25550000
opls_142-156    C    0.40906984    0.54299006    0.66835003    -0.09530000
opls_700-157    C    0.43861994    0.55330007    0.69341012    0.00000000
opls_423-158    C    0.42856987    0.59484992    0.74776999    0.24930000
opls_700-159    C    0.48288989    0.52381007    0.66547955    0.07240000
opls_145-160    C    0.51027973    0.53910001    0.63332041    -0.13300000
opls_145-161    C    0.49987982    0.48031993    0.66983045    -0.08480000
opls_145-162    C    0.55212997    0.51261991    0.60728032    -0.13310000
opls_145-163    C    0.54173995    0.45380994    0.64307032    -0.17510000
opls_700-164    C    0.56914982    0.46911004    0.61262929    0.07240000
opls_700-165    C    0.61347984    0.44002005    0.58382020    -0.00050000
opls_142-166    C    0.64256991    0.45141999    0.59981985    -0.09530000
opls_423-167    C    0.62433993    0.39792998    0.53541954    0.25660000
opls_146-168    H    0.89805002    0.33287984    0.92844920    0.06620000
opls_146-169    H    0.77674997    0.43880983    0.95570003    0.08370000
opls_146-170    H    0.79343992    0.31593999    0.03502963    0.08140000
opls_146-171    H    0.92937988    0.27281016    0.05225948    0.06390000
opls_146-172    H    0.82853986    0.26205978    0.86163991    0.12450000
opls_146-173    H    0.97179999    0.19750981    0.03976002    0.07160000
opls_146-174    H    0.87058988    0.18653984    0.85766016    0.08130000
opls_146-175    H    0.80251981    0.46791002    0.09521943    0.08260000
opls_146-176    H    0.91342980    0.37556004    0.78933014    0.08260000
opls_146-177    H    0.83195980    0.51365018    0.11529057    0.11020000
opls_146-178    H    0.94218999    0.42200992    0.80806960    0.08130000
opls_146-179    H    0.72667004    0.45652995    0.14340046    0.09850000
opls_146-180    H    0.73196973    0.34498006    0.92696044    0.07640000
opls_146-181    H    0.65259999    0.48937014    0.18756003    0.14440000
opls_146-182    H    0.65812000    0.37715004    0.98031946    0.11270000
opls_144-183    H    0.92573978    0.12774996    0.94136985    0.11080000
opls_146-184    H    0.06194991    0.05046975    0.02475010    0.12460000
opls_146-185    H    0.94655994    0.07236003    0.83627958    0.09850000
opls_146-186    H    0.08552978    0.97624994    0.03450975    0.07640000
opls_146-187    H    0.96988010    0.99864974    0.84778931    0.11860000
opls_144-188    H    0.10438968    0.91492998    0.96261004    0.12480000
opls_146-189    H    0.15727971    0.84574004    0.89914942    0.10110000
opls_146-190    H    0.03833995    0.86604997    0.10886986    0.08820000
opls_146-191    H    0.18554976    0.77099001    0.93210924    0.08260000
opls_146-192    H    0.06674998    0.79211995    0.15151010    0.08110000
opls_146-193    H    0.20679983    0.71795006    0.09060024    0.10790000
opls_146-194    H    0.08801985    0.73123002    0.03805997    0.07960000
opls_146-195    H    0.18851979    0.61278019    0.17652014    0.07640000
opls_146-196    H    0.25002996    0.57811991    0.05888036    0.08110000
opls_146-197    H    0.25550973    0.68542018    0.25520058    0.12450000
opls_146-198    H    0.15887992    0.59038993    0.00769957    0.06620000
opls_146-199    H    0.05275975    0.70587021    0.20688054    0.10530000
opls_146-200    H    0.32356986    0.53523017    0.08137021    0.10530000
opls_146-201    H    0.32833981    0.64296018    0.27611966    0.09200000
opls_146-202    H    0.11661987    0.55890001    0.98072953    0.09870000
opls_146-203    H    0.00973993    0.67433997    0.17384983    0.10530000
opls_146-204    H    0.90956997    0.59553994    0.83038987    0.10710000
opls_146-205    H    0.99592992    0.46556985    0.90783037    0.08220000
opls_146-206    H    0.96229980    0.61355993    0.88423959    0.08110000
opls_146-207    H    0.04905001    0.48336987    0.95924052    0.10480000
opls_144-208    H    0.99934002    0.62268996    0.05425978    0.10400000
opls_146-209    H    0.46783980    0.58270013    0.13588994    0.10710000
opls_146-210    H    0.44160987    0.48239993    0.24212007    0.10940000
opls_146-211    H    0.54005001    0.53237006    0.08090037    0.08260000
opls_146-212    H    0.51431998    0.43176990    0.19101017    0.06620000
opls_144-213    H    0.59382981    0.49110016    0.16848001    0.07510000
opls_144-214    H    0.38635983    0.52644019    0.12881034    0.07510000
opls_146-215    H    0.93861004    0.30826993    0.41498990    0.10110000
opls_146-216    H    0.82234996    0.42111012    0.41523038    0.08130000
opls_146-217    H    0.82698985    0.30476002    0.53949938    0.07180000
opls_146-218    H    0.96458988    0.24784983    0.56509047    0.08110000
opls_146-219    H    0.85743002    0.24863998    0.38090969    0.06620000
opls_146-220    H    0.00092992    0.17240004    0.55613012    0.11300000
opls_146-221    H    0.89329999    0.17316005    0.38057051    0.10860000
opls_146-222    H    0.85420002    0.44622989    0.55290934    0.07640000
opls_146-223    H    0.95722000    0.34883000    0.22445930    0.10940000
opls_146-224    H    0.87794991    0.49463993    0.46789993    0.10530000
opls_146-225    H    0.98047999    0.39813002    0.13564946    0.10970000
opls_146-226    H    0.76615984    0.44697008    0.59347976    0.08290000
opls_146-227    H    0.76833991    0.33370993    0.42784939    0.08130000
opls_146-228    H    0.69228987    0.48127983    0.64458966    0.09370000
opls_146-229    H    0.69496986    0.36774000    0.48038966    0.08430000
opls_144-230    H    0.94648990    0.11043992    0.45909943    0.13560000
opls_146-231    H    0.08293003    0.02719994    0.53281039    0.11860000
opls_146-232    H    0.96531986    0.05162994    0.36453055    0.08990000
opls_146-233    H    0.10549993    0.95341002    0.54293006    0.06400000
opls_146-234    H    0.98777965    0.97798016    0.37565941    0.10710000
opls_144-235    H    0.12395983    0.89281997    0.45651947    0.12480000
opls_146-236    H    0.17767990    0.82542003    0.39152978    0.10110000
opls_146-237    H    0.06136977    0.83976998    0.60744018    0.06430000
opls_146-238    H    0.20984981    0.75067017    0.43511943    0.08290000
opls_146-239    H    0.09336986    0.76557009    0.65322057    0.10530000
opls_146-240    H    0.23293985    0.69794990    0.62634923    0.08260000
opls_146-241    H    0.11921971    0.70385004    0.52890014    0.07640000
opls_146-242    H    0.22177977    0.58749005    0.67321943    0.14440000
opls_146-243    H    0.28481996    0.55609004    0.56689061    0.07180000
opls_146-244    H    0.28404994    0.66573982    0.77659020    0.08110000
opls_146-245    H    0.18960974    0.56321014    0.49107926    0.10540000
opls_146-246    H    0.08502998    0.68036992    0.68389930    0.08130000
opls_146-247    H    0.35840986    0.51696989    0.57970978    0.10010000
opls_146-248    H    0.35731988    0.62723011    0.78165003    0.07310000
opls_146-249    H    0.14521997    0.53389990    0.45758982    0.07420000
opls_146-250    H    0.04053982    0.65152988    0.64260048    0.10530000
opls_146-251    H    0.92608969    0.58989013    0.39635052    0.10790000
opls_146-252    H    0.00536997    0.45616987    0.37111946    0.08110000
opls_146-253    H    0.98228996    0.59935998    0.46743009    0.08260000
opls_146-254    H    0.06212004    0.46558989    0.45187944    0.06390000
opls_144-255    H    0.02761979    0.60296009    0.54386001    0.12480000
opls_146-256    H    0.49858977    0.57268006    0.62587939    0.09850000
opls_146-257    H    0.48026984    0.46647993    0.69711047    0.10540000
opls_146-258    H    0.57171992    0.52648991    0.57987937    0.14040000
opls_146-259    H    0.55342990    0.42021007    0.64930059    0.07640000
opls_144-260    H    0.63119997    0.48397998    0.64225991    0.13470000
opls_144-261    H    0.42005977    0.51055009    0.62502033    0.13590000
opls_753-262    N    0.04248009    0.13424980    0.93761946    -0.32150000
opls_753-263    N    0.98063980    0.92349009    0.94400959    -0.32150000
opls_753-264    N    0.86314996    0.54774991    0.62549017    -0.31800000
opls_753-265    N    0.11318993    0.49561982    0.96383052    -0.31830000
opls_753-266    N    0.39248990    0.64009007    0.31877936    -0.31820000
opls_753-267    N    0.59198994    0.37372997    0.00546990    -0.31830000
opls_753-268    N    0.06860988    0.10647994    0.42839985    -0.32160000
opls_753-269    N    0.00045986    0.90039002    0.46671004    -0.32160000
opls_753-270    N    0.87067993    0.59256004    0.18689975    -0.31790000
opls_753-271    N    0.13328997    0.47140987    0.45754951    -0.32160000
opls_753-272    N    0.42253979    0.62689995    0.79626934    -0.32160000
opls_753-273    N    0.63167992    0.36496983    0.49503955    -0.32160000
