#======================================================================
# Crystal Data Generated By AuToFF
#----------------------------------------------------------------------

data_AuToFF_phase_1

_cell_length_a                         39.9000
_cell_length_b                         39.9000
_cell_length_c                         6.4000
_cell_angle_alpha                      90.00
_cell_angle_beta                       90.00
_cell_angle_gamma                      90.00
_symmetry_space_group_name_H-M_alt     'P 1'
_symmetry_space_group_IT_number        1

loop_
_space_group_symop_operation_xyz
   'x, y, z'

loop_
   _atom_site_label
   _atom_site_type_symbol
   _atom_site_fract_x
   _atom_site_fract_y
   _atom_site_fract_z
   _atom_site_charge
opls_700-0    C    0.82975013    0.50000000    0.65304062    0.03910000
opls_145-1    C    0.79821003    0.50000000    0.74249063    -0.23110000
opls_145-2    C    0.76820000    0.50000000    0.63564063    -0.22910000
opls_700-3    C    0.76626992    0.50000000    0.42215938    0.07610000
opls_145-4    C    0.79870000    0.50000000    0.32955937    -0.22030000
opls_145-5    C    0.82935013    0.50000000    0.43777031    -0.22060000
opls_142-6    C    0.64246992    0.50000000    0.96359062    0.09670000
opls_145-7    C    0.58405990    0.50000000    0.86749063    0.18490000
opls_145-8    C    0.55013008    0.50000000    0.92597969    -0.25630000
opls_716-9    C    0.51943008    0.50000000    0.79965000    0.01780000
opls_716-10    C    0.53046992    0.50000000    0.60210000    -0.01810000
opls_145-11    C    0.56304010    0.50000000    0.51732031    -0.22000000
opls_145-12    C    0.58925990    0.50000000    0.65372969    -0.22900000
opls_700-13    C    0.67025013    0.00000000    0.15304062    0.03910000
opls_145-14    C    0.70178997    0.00000000    0.24249063    -0.23110000
opls_145-15    C    0.73180000    0.00000000    0.13564062    -0.22900000
opls_700-16    C    0.73373008    0.00000000    0.92215938    0.07610000
opls_145-17    C    0.70130000    0.00000000    0.82955937    -0.22030000
opls_145-18    C    0.67065013    0.00000000    0.93777031    -0.22060000
opls_142-19    C    0.85753008    0.00000000    0.46359062    0.09670000
opls_145-20    C    0.91594010    0.00000000    0.36749062    0.18470000
opls_145-21    C    0.94986992    0.00000000    0.42597969    -0.25630000
opls_716-22    C    0.98056992    0.00000000    0.29965000    0.01780000
opls_716-23    C    0.96953008    0.00000000    0.10210000    -0.01810000
opls_145-24    C    0.93695990    0.00000000    0.01732031    -0.21990000
opls_145-25    C    0.91074010    0.00000000    0.15372969    -0.22900000
opls_700-26    C    0.50000000    0.32975013    0.90304063    0.03910000
opls_145-27    C    0.50000000    0.29822005    0.99249062    -0.23110000
opls_145-28    C    0.50000000    0.26820000    0.88565000    -0.22900000
opls_700-29    C    0.50000000    0.26626992    0.67215938    0.07610000
opls_145-30    C    0.50000000    0.29870000    0.57955937    -0.22030000
opls_145-31    C    0.50000000    0.32934987    0.68777031    -0.22060000
opls_142-32    C    0.50000000    0.14246992    0.21359063    0.09670000
opls_145-33    C    0.50000000    0.08405990    0.11749063    0.18470000
opls_145-34    C    0.50000000    0.05013008    0.17597969    -0.25620000
opls_716-35    C    0.50000000    0.01943008    0.04965000    0.01780000
opls_716-36    C    0.50000000    0.03046992    0.85210000    -0.01810000
opls_145-37    C    0.50000000    0.06304010    0.76732031    -0.22000000
opls_145-38    C    0.50000000    0.08925990    0.90372969    -0.22890000
opls_700-39    C    0.00000000    0.82975013    0.40304063    0.03920000
opls_145-40    C    0.00000000    0.79821003    0.49249063    -0.23110000
opls_145-41    C    0.00000000    0.76820000    0.38564063    -0.22900000
opls_700-42    C    0.00000000    0.76626992    0.17215938    0.07610000
opls_145-43    C    0.00000000    0.79870000    0.07955937    -0.22030000
opls_145-44    C    0.00000000    0.82935013    0.18777031    -0.22050000
opls_142-45    C    0.00000000    0.64246992    0.71359063    0.09670000
opls_145-46    C    0.00000000    0.58405990    0.61749062    0.18470000
opls_145-47    C    0.00000000    0.55013008    0.67597969    -0.25620000
opls_716-48    C    0.00000000    0.51943008    0.54965000    0.01780000
opls_716-49    C    0.00000000    0.53046992    0.35210000    -0.01810000
opls_145-50    C    0.00000000    0.56304010    0.26732031    -0.22000000
opls_145-51    C    0.00000000    0.58925990    0.40372969    -0.22890000
opls_700-52    C    0.00000000    0.17025013    0.40304063    0.03910000
opls_145-53    C    0.00000000    0.20177995    0.49249063    -0.23110000
opls_145-54    C    0.00000000    0.23180000    0.38564063    -0.22910000
opls_700-55    C    0.00000000    0.23373008    0.17215938    0.07620000
opls_145-56    C    0.00000000    0.20130000    0.07955937    -0.22030000
opls_145-57    C    0.00000000    0.17064987    0.18777031    -0.22050000
opls_142-58    C    0.00000000    0.35753008    0.71359063    0.09670000
opls_145-59    C    0.00000000    0.41594010    0.61749062    0.18470000
opls_145-60    C    0.00000000    0.44986992    0.67597969    -0.25630000
opls_716-61    C    0.00000000    0.48056992    0.54965000    0.01780000
opls_716-62    C    0.00000000    0.46953008    0.35210000    -0.01810000
opls_145-63    C    0.00000000    0.43695990    0.26732031    -0.22000000
opls_145-64    C    0.00000000    0.41074010    0.40372969    -0.22880000
opls_700-65    C    0.50000000    0.67025013    0.90304063    0.03910000
opls_145-66    C    0.50000000    0.70178997    0.99249062    -0.23110000
opls_145-67    C    0.50000000    0.73180000    0.88565000    -0.22910000
opls_700-68    C    0.50000000    0.73373008    0.67215938    0.07610000
opls_145-69    C    0.50000000    0.70130000    0.57955937    -0.22030000
opls_145-70    C    0.50000000    0.67065013    0.68777031    -0.22060000
opls_142-71    C    0.50000000    0.85753008    0.21359063    0.09670000
opls_145-72    C    0.50000000    0.91594010    0.11749063    0.18470000
opls_145-73    C    0.50000000    0.94986992    0.17597969    -0.25630000
opls_716-74    C    0.50000000    0.98056992    0.04965000    0.01780000
opls_716-75    C    0.50000000    0.96953008    0.85210000    -0.01810000
opls_145-76    C    0.50000000    0.93695990    0.76732031    -0.22000000
opls_145-77    C    0.50000000    0.91074010    0.90372969    -0.22900000
opls_700-78    C    0.67025013    0.50000000    0.09695938    0.03910000
opls_145-79    C    0.70178997    0.50000000    0.00750937    -0.23100000
opls_145-80    C    0.73180000    0.50000000    0.11435000    -0.22910000
opls_700-81    C    0.73373008    0.50000000    0.32784062    0.07610000
opls_145-82    C    0.70130000    0.50000000    0.42044063    -0.22030000
opls_145-83    C    0.67065013    0.50000000    0.31222969    -0.22050000
opls_142-84    C    0.85753008    0.50000000    0.78640937    0.09680000
opls_145-85    C    0.91594010    0.50000000    0.88250938    0.18470000
opls_145-86    C    0.94986992    0.50000000    0.82402031    -0.25630000
opls_716-87    C    0.98056992    0.50000000    0.95035000    0.01780000
opls_716-88    C    0.96953008    0.50000000    0.14790000    -0.01810000
opls_145-89    C    0.93695990    0.50000000    0.23267969    -0.22000000
opls_145-90    C    0.91074010    0.50000000    0.09627031    -0.22900000
opls_700-91    C    0.82975013    0.00000000    0.59695937    0.03910000
opls_145-92    C    0.79821003    0.00000000    0.50750938    -0.23110000
opls_145-93    C    0.76820000    0.00000000    0.61435000    -0.22910000
opls_700-94    C    0.76626992    0.00000000    0.82784063    0.07610000
opls_145-95    C    0.79870000    0.00000000    0.92044062    -0.22030000
opls_145-96    C    0.82935013    0.00000000    0.81222969    -0.22060000
opls_142-97    C    0.64246992    0.00000000    0.28640938    0.09670000
opls_145-98    C    0.58405990    0.00000000    0.38250937    0.18480000
opls_145-99    C    0.55013008    0.00000000    0.32402031    -0.25630000
opls_716-100    C    0.51943008    0.00000000    0.45035000    0.01780000
opls_716-101    C    0.53046992    0.00000000    0.64790000    -0.01810000
opls_145-102    C    0.56304010    0.00000000    0.73267969    -0.21990000
opls_145-103    C    0.58925990    0.00000000    0.59627031    -0.22900000
opls_700-104    C    0.32975013    0.50000000    0.09695938    0.03910000
opls_145-105    C    0.29822005    0.50000000    0.00750937    -0.23110000
opls_145-106    C    0.26820000    0.50000000    0.11435000    -0.22900000
opls_700-107    C    0.26626992    0.50000000    0.32784062    0.07610000
opls_145-108    C    0.29870000    0.50000000    0.42044063    -0.22030000
opls_145-109    C    0.32934987    0.50000000    0.31222969    -0.22060000
opls_142-110    C    0.14246992    0.50000000    0.78640937    0.09670000
opls_145-111    C    0.08405990    0.50000000    0.88250938    0.18470000
opls_145-112    C    0.05013008    0.50000000    0.82402031    -0.25630000
opls_716-113    C    0.01943008    0.50000000    0.95035000    0.01780000
opls_716-114    C    0.03046992    0.50000000    0.14790000    -0.01810000
opls_145-115    C    0.06304010    0.50000000    0.23267969    -0.22000000
opls_145-116    C    0.08925990    0.50000000    0.09627031    -0.22900000
opls_700-117    C    0.00000000    0.32975013    0.84695937    0.03910000
opls_145-118    C    0.00000000    0.29822005    0.75750938    -0.23110000
opls_145-119    C    0.00000000    0.26820000    0.86435000    -0.22910000
opls_700-120    C    0.00000000    0.26626992    0.07784062    0.07610000
opls_145-121    C    0.00000000    0.29870000    0.17044062    -0.22030000
opls_145-122    C    0.00000000    0.32934987    0.06222969    -0.22060000
opls_142-123    C    0.00000000    0.14246992    0.53640937    0.09670000
opls_145-124    C    0.00000000    0.08405990    0.63250938    0.18470000
opls_145-125    C    0.00000000    0.05013008    0.57402031    -0.25620000
opls_716-126    C    0.00000000    0.01943008    0.70035000    0.01780000
opls_716-127    C    0.00000000    0.03046992    0.89790000    -0.01810000
opls_145-128    C    0.00000000    0.06304010    0.98267969    -0.22000000
opls_145-129    C    0.00000000    0.08925990    0.84627031    -0.22900000
opls_700-130    C    0.50000000    0.82975013    0.34695938    0.03910000
opls_145-131    C    0.50000000    0.79821003    0.25750938    -0.23110000
opls_145-132    C    0.50000000    0.76820000    0.36435938    -0.22910000
opls_700-133    C    0.50000000    0.76626992    0.57784062    0.07610000
opls_145-134    C    0.50000000    0.79870000    0.67044063    -0.22030000
opls_145-135    C    0.50000000    0.82935013    0.56222969    -0.22060000
opls_142-136    C    0.50000000    0.64246992    0.03640938    0.09670000
opls_145-137    C    0.50000000    0.58405990    0.13250938    0.18470000
opls_145-138    C    0.50000000    0.55013008    0.07402031    -0.25630000
opls_716-139    C    0.50000000    0.51943008    0.20035000    0.01780000
opls_716-140    C    0.50000000    0.53046992    0.39790000    -0.01810000
opls_145-141    C    0.50000000    0.56304010    0.48267969    -0.22000000
opls_145-142    C    0.50000000    0.58925990    0.34627031    -0.22900000
opls_700-143    C    0.50000000    0.17025013    0.34695938    0.03910000
opls_145-144    C    0.50000000    0.20177995    0.25750938    -0.23100000
opls_145-145    C    0.50000000    0.23180000    0.36435938    -0.22910000
opls_700-146    C    0.50000000    0.23373008    0.57784062    0.07620000
opls_145-147    C    0.50000000    0.20130000    0.67044063    -0.22030000
opls_145-148    C    0.50000000    0.17064987    0.56222969    -0.22050000
opls_142-149    C    0.50000000    0.35753008    0.03640938    0.09670000
opls_145-150    C    0.50000000    0.41594010    0.13250938    0.18470000
opls_145-151    C    0.50000000    0.44986992    0.07402031    -0.25630000
opls_716-152    C    0.50000000    0.48056992    0.20035000    0.01780000
opls_716-153    C    0.50000000    0.46953008    0.39790000    -0.01810000
opls_145-154    C    0.50000000    0.43695990    0.48267969    -0.21990000
opls_145-155    C    0.50000000    0.41074010    0.34627031    -0.22900000
opls_700-156    C    0.00000000    0.67025013    0.84695937    0.03910000
opls_145-157    C    0.00000000    0.70178997    0.75750938    -0.23110000
opls_145-158    C    0.00000000    0.73180000    0.86435000    -0.22910000
opls_700-159    C    0.00000000    0.73373008    0.07784062    0.07610000
opls_145-160    C    0.00000000    0.70130000    0.17044062    -0.22030000
opls_145-161    C    0.00000000    0.67065013    0.06222969    -0.22060000
opls_142-162    C    0.00000000    0.85753008    0.53640937    0.09670000
opls_145-163    C    0.00000000    0.91594010    0.63250938    0.18470000
opls_145-164    C    0.00000000    0.94986992    0.57402031    -0.25630000
opls_716-165    C    0.00000000    0.98056992    0.70035000    0.01780000
opls_716-166    C    0.00000000    0.96953008    0.89790000    -0.01810000
opls_145-167    C    0.00000000    0.93695990    0.98267969    -0.21990000
opls_145-168    C    0.00000000    0.91074010    0.84627031    -0.22900000
opls_700-169    C    0.17025013    0.00000000    0.59695937    0.03910000
opls_145-170    C    0.20177995    0.00000000    0.50750938    -0.23100000
opls_145-171    C    0.23180000    0.00000000    0.61435000    -0.22910000
opls_700-172    C    0.23373008    0.00000000    0.82784063    0.07610000
opls_145-173    C    0.20130000    0.00000000    0.92044062    -0.22030000
opls_145-174    C    0.17064987    0.00000000    0.81222969    -0.22060000
opls_142-175    C    0.35753008    0.00000000    0.28640938    0.09690000
opls_145-176    C    0.41594010    0.00000000    0.38250937    0.18480000
opls_145-177    C    0.44986992    0.00000000    0.32402031    -0.25630000
opls_716-178    C    0.48056992    0.00000000    0.45035000    0.01780000
opls_716-179    C    0.46953008    0.00000000    0.64790000    -0.01810000
opls_145-180    C    0.43695990    0.00000000    0.73267969    -0.22000000
opls_145-181    C    0.41074010    0.00000000    0.59627031    -0.22900000
opls_700-182    C    0.32975013    0.00000000    0.15304062    0.03910000
opls_145-183    C    0.29822005    0.00000000    0.24249063    -0.23100000
opls_145-184    C    0.26820000    0.00000000    0.13564062    -0.22910000
opls_700-185    C    0.26626992    0.00000000    0.92215938    0.07620000
opls_145-186    C    0.29870000    0.00000000    0.82955937    -0.22030000
opls_145-187    C    0.32934987    0.00000000    0.93777031    -0.22040000
opls_142-188    C    0.14246992    0.00000000    0.46359062    0.09670000
opls_145-189    C    0.08405990    0.00000000    0.36749062    0.18470000
opls_145-190    C    0.05013008    0.00000000    0.42597969    -0.25630000
opls_716-191    C    0.01943008    0.00000000    0.29965000    0.01780000
opls_716-192    C    0.03046992    0.00000000    0.10210000    -0.01810000
opls_145-193    C    0.06304010    0.00000000    0.01732031    -0.22000000
opls_145-194    C    0.08925990    0.00000000    0.15372969    -0.22900000
opls_700-195    C    0.17025013    0.50000000    0.65304062    0.03910000
opls_145-196    C    0.20177995    0.50000000    0.74249063    -0.23110000
opls_145-197    C    0.23180000    0.50000000    0.63564063    -0.22910000
opls_700-198    C    0.23373008    0.50000000    0.42215938    0.07610000
opls_145-199    C    0.20130000    0.50000000    0.32955937    -0.22030000
opls_145-200    C    0.17064987    0.50000000    0.43777031    -0.22060000
opls_142-201    C    0.35753008    0.50000000    0.96359062    0.09670000
opls_145-202    C    0.41594010    0.50000000    0.86749063    0.18470000
opls_145-203    C    0.44986992    0.50000000    0.92597969    -0.25630000
opls_716-204    C    0.48056992    0.50000000    0.79965000    0.01780000
opls_716-205    C    0.46953008    0.50000000    0.60210000    -0.01810000
opls_145-206    C    0.43695990    0.50000000    0.51732031    -0.22000000
opls_145-207    C    0.41074010    0.50000000    0.65372969    -0.22900000
opls_139-208    C    0.50000000    0.50000000    0.50000000    -0.02130000
opls_139-209    C    0.00000000    0.00000000    0.00000000    -0.02130000
opls_139-210    C    0.50000000    0.00000000    0.75000000    -0.02130000
opls_139-211    C    0.00000000    0.50000000    0.25000000    -0.02130000
opls_146-212    H    0.79702005    0.50000000    0.88865938    0.20810000
opls_146-213    H    0.74750000    0.50000000    0.71404062    0.20780000
opls_146-214    H    0.80162005    0.50000000    0.18282969    0.20800000
opls_146-215    H    0.85111003    0.50000000    0.36420938    0.20820000
opls_144-216    H    0.64891003    0.50000000    0.81075937    0.10090000
opls_146-217    H    0.61170000    0.50000000    0.59279063    0.20780000
opls_146-218    H    0.56837995    0.50000000    0.36595938    0.20780000
opls_146-219    H    0.55076992    0.50000000    0.07535937    0.20800000
opls_146-220    H    0.70297995    0.00000000    0.38865938    0.20810000
opls_146-221    H    0.75248997    0.00000000    0.21404063    0.20790000
opls_146-222    H    0.69837995    0.00000000    0.68282969    0.20800000
opls_146-223    H    0.64888997    0.00000000    0.86420938    0.20810000
opls_144-224    H    0.85108997    0.00000000    0.31075938    0.10090000
opls_146-225    H    0.88830000    0.00000000    0.09279063    0.20780000
opls_146-226    H    0.93162005    0.00000000    0.86595937    0.20780000
opls_146-227    H    0.94923008    0.00000000    0.57535938    0.20800000
opls_146-228    H    0.50000000    0.29702005    0.13865938    0.20830000
opls_146-229    H    0.50000000    0.24751003    0.96404062    0.20780000
opls_146-230    H    0.50000000    0.30162005    0.43282969    0.20800000
opls_146-231    H    0.50000000    0.35111003    0.61420938    0.20810000
opls_144-232    H    0.50000000    0.14891003    0.06075937    0.10090000
opls_146-233    H    0.50000000    0.11170000    0.84279063    0.20780000
opls_146-234    H    0.50000000    0.06837995    0.61595938    0.20780000
opls_146-235    H    0.50000000    0.05076992    0.32535938    0.20800000
opls_146-236    H    0.00000000    0.79702005    0.63865938    0.20800000
opls_146-237    H    0.00000000    0.74750000    0.46404063    0.20780000
opls_146-238    H    0.00000000    0.80162005    0.93282969    0.20800000
opls_146-239    H    0.00000000    0.85111003    0.11420938    0.20830000
opls_144-240    H    0.00000000    0.64891003    0.56077031    0.10080000
opls_146-241    H    0.00000000    0.61170000    0.34279063    0.20780000
opls_146-242    H    0.00000000    0.56837995    0.11595938    0.20790000
opls_146-243    H    0.00000000    0.55076992    0.82535938    0.20810000
opls_146-244    H    0.00000000    0.20297995    0.63865938    0.20810000
opls_146-245    H    0.00000000    0.25248997    0.46404063    0.20780000
opls_146-246    H    0.00000000    0.19837995    0.93282969    0.20800000
opls_146-247    H    0.00000000    0.14888997    0.11420938    0.20810000
opls_144-248    H    0.00000000    0.35108997    0.56077031    0.10080000
opls_146-249    H    0.00000000    0.38830000    0.34279063    0.20780000
opls_146-250    H    0.00000000    0.43162005    0.11595938    0.20780000
opls_146-251    H    0.00000000    0.44923008    0.82535938    0.20810000
opls_146-252    H    0.50000000    0.70297995    0.13865938    0.20800000
opls_146-253    H    0.50000000    0.75248997    0.96404062    0.20790000
opls_146-254    H    0.50000000    0.69837995    0.43282969    0.20800000
opls_146-255    H    0.50000000    0.64888997    0.61420938    0.20820000
opls_144-256    H    0.50000000    0.85108997    0.06075937    0.10100000
opls_146-257    H    0.50000000    0.88830000    0.84279063    0.20780000
opls_146-258    H    0.50000000    0.93162005    0.61595938    0.20780000
opls_146-259    H    0.50000000    0.94923008    0.32535938    0.20800000
opls_146-260    H    0.70297995    0.50000000    0.86134062    0.20810000
opls_146-261    H    0.75248997    0.50000000    0.03595938    0.20790000
opls_146-262    H    0.69837995    0.50000000    0.56717031    0.20800000
opls_146-263    H    0.64888997    0.50000000    0.38579062    0.20810000
opls_144-264    H    0.85108997    0.50000000    0.93922969    0.10080000
opls_146-265    H    0.88830000    0.50000000    0.15720938    0.20790000
opls_146-266    H    0.93162005    0.50000000    0.38404063    0.20780000
opls_146-267    H    0.94923008    0.50000000    0.67464063    0.20800000
opls_146-268    H    0.79702005    0.00000000    0.36134063    0.20800000
opls_146-269    H    0.74750000    0.00000000    0.53595938    0.20790000
opls_146-270    H    0.80162005    0.00000000    0.06717031    0.20800000
opls_146-271    H    0.85111003    0.00000000    0.88579063    0.20810000
opls_144-272    H    0.64891003    0.00000000    0.43922969    0.10080000
opls_146-273    H    0.61170000    0.00000000    0.65720938    0.20780000
opls_146-274    H    0.56837995    0.00000000    0.88404063    0.20780000
opls_146-275    H    0.55076992    0.00000000    0.17464062    0.20810000
opls_146-276    H    0.29702005    0.50000000    0.86134062    0.20800000
opls_146-277    H    0.24751003    0.50000000    0.03595938    0.20780000
opls_146-278    H    0.30162005    0.50000000    0.56717031    0.20800000
opls_146-279    H    0.35111003    0.50000000    0.38579062    0.20810000
opls_144-280    H    0.14891003    0.50000000    0.93922969    0.10080000
opls_146-281    H    0.11170000    0.50000000    0.15720938    0.20780000
opls_146-282    H    0.06837995    0.50000000    0.38404063    0.20780000
opls_146-283    H    0.05076992    0.50000000    0.67464063    0.20810000
opls_146-284    H    0.00000000    0.29702005    0.61134062    0.20800000
opls_146-285    H    0.00000000    0.24751003    0.78595938    0.20780000
opls_146-286    H    0.00000000    0.30162005    0.31717031    0.20800000
opls_146-287    H    0.00000000    0.35111003    0.13579062    0.20810000
opls_144-288    H    0.00000000    0.14891003    0.68922969    0.10080000
opls_146-289    H    0.00000000    0.11170000    0.90720937    0.20780000
opls_146-290    H    0.00000000    0.06837995    0.13404062    0.20780000
opls_146-291    H    0.00000000    0.05076992    0.42464062    0.20800000
opls_146-292    H    0.50000000    0.79702005    0.11134062    0.20800000
opls_146-293    H    0.50000000    0.74750000    0.28595938    0.20780000
opls_146-294    H    0.50000000    0.80162005    0.81717031    0.20810000
opls_146-295    H    0.50000000    0.85111003    0.63579063    0.20820000
opls_144-296    H    0.50000000    0.64891003    0.18924063    0.10090000
opls_146-297    H    0.50000000    0.61170000    0.40720937    0.20790000
opls_146-298    H    0.50000000    0.56837995    0.63404062    0.20780000
opls_146-299    H    0.50000000    0.55076992    0.92464062    0.20800000
opls_146-300    H    0.50000000    0.20297995    0.11134062    0.20810000
opls_146-301    H    0.50000000    0.25248997    0.28595938    0.20780000
opls_146-302    H    0.50000000    0.19837995    0.81717031    0.20810000
opls_146-303    H    0.50000000    0.14888997    0.63579063    0.20810000
opls_144-304    H    0.50000000    0.35108997    0.18924063    0.10090000
opls_146-305    H    0.50000000    0.38830000    0.40720937    0.20780000
opls_146-306    H    0.50000000    0.43162005    0.63404062    0.20780000
opls_146-307    H    0.50000000    0.44923008    0.92464062    0.20800000
opls_146-308    H    0.00000000    0.70297995    0.61134062    0.20800000
opls_146-309    H    0.00000000    0.75248997    0.78595938    0.20790000
opls_146-310    H    0.00000000    0.69837995    0.31717031    0.20800000
opls_146-311    H    0.00000000    0.64888997    0.13579062    0.20810000
opls_144-312    H    0.00000000    0.85108997    0.68922969    0.10080000
opls_146-313    H    0.00000000    0.88830000    0.90720937    0.20790000
opls_146-314    H    0.00000000    0.93162005    0.13404062    0.20780000
opls_146-315    H    0.00000000    0.94923008    0.42464062    0.20810000
opls_146-316    H    0.20297995    0.00000000    0.36134063    0.20800000
opls_146-317    H    0.25248997    0.00000000    0.53595938    0.20780000
opls_146-318    H    0.19837995    0.00000000    0.06717031    0.20800000
opls_146-319    H    0.14888997    0.00000000    0.88579063    0.20810000
opls_144-320    H    0.35108997    0.00000000    0.43922969    0.10080000
opls_146-321    H    0.38830000    0.00000000    0.65720938    0.20780000
opls_146-322    H    0.43162005    0.00000000    0.88404063    0.20780000
opls_146-323    H    0.44923008    0.00000000    0.17464062    0.20800000
opls_146-324    H    0.29702005    0.00000000    0.38865938    0.20800000
opls_146-325    H    0.24751003    0.00000000    0.21404063    0.20790000
opls_146-326    H    0.30162005    0.00000000    0.68282969    0.20800000
opls_146-327    H    0.35111003    0.00000000    0.86420938    0.20810000
opls_144-328    H    0.14891003    0.00000000    0.31075938    0.10090000
opls_146-329    H    0.11170000    0.00000000    0.09279063    0.20780000
opls_146-330    H    0.06837995    0.00000000    0.86595937    0.20780000
opls_146-331    H    0.05076992    0.00000000    0.57535938    0.20800000
opls_146-332    H    0.20297995    0.50000000    0.88865938    0.20810000
opls_146-333    H    0.25248997    0.50000000    0.71404062    0.20780000
opls_146-334    H    0.19837995    0.50000000    0.18282969    0.20800000
opls_146-335    H    0.14888997    0.50000000    0.36420938    0.20810000
opls_144-336    H    0.35108997    0.50000000    0.81075937    0.10090000
opls_146-337    H    0.38830000    0.50000000    0.59279063    0.20780000
opls_146-338    H    0.43162005    0.50000000    0.36595938    0.20780000
opls_146-339    H    0.44923008    0.50000000    0.07535937    0.20800000
opls_750-340    N    0.60944010    0.50000000    0.01097969    -0.34140000
opls_750-341    N    0.89055990    0.00000000    0.51097969    -0.34140000
opls_750-342    N    0.50000000    0.10944010    0.26097969    -0.34130000
opls_750-343    N    0.00000000    0.60944010    0.76097969    -0.34140000
opls_750-344    N    0.00000000    0.39055990    0.76097969    -0.34140000
opls_750-345    N    0.50000000    0.89055990    0.26097969    -0.34120000
opls_750-346    N    0.89055990    0.50000000    0.73902031    -0.34140000
opls_750-347    N    0.60944010    0.00000000    0.23902031    -0.34140000
opls_750-348    N    0.10944010    0.50000000    0.73902031    -0.34140000
opls_750-349    N    0.00000000    0.10944010    0.48902031    -0.34130000
opls_750-350    N    0.50000000    0.60944010    0.98902031    -0.34140000
opls_750-351    N    0.50000000    0.39055990    0.98902031    -0.34120000
opls_750-352    N    0.00000000    0.89055990    0.48902031    -0.34130000
opls_750-353    N    0.39055990    0.00000000    0.23902031    -0.34130000
opls_750-354    N    0.10944010    0.00000000    0.51097969    -0.34140000
opls_750-355    N    0.39055990    0.50000000    0.01097969    -0.34140000
