#======================================================================
# Crystal Data Generated By AuToFF
#----------------------------------------------------------------------

data_AuToFF_phase_1

_cell_length_a                         15.0000
_cell_length_b                         15.0000
_cell_length_c                         3.7560
_cell_angle_alpha                      90.00
_cell_angle_beta                       90.00
_cell_angle_gamma                      120.00
_symmetry_space_group_name_H-M_alt     'P 1'
_symmetry_space_group_IT_number        1

loop_
_space_group_symop_operation_xyz
   'x, y, z'

loop_
   _atom_site_label
   _atom_site_type_symbol
   _atom_site_fract_x
   _atom_site_fract_y
   _atom_site_fract_z
   _atom_site_charge
opls_940-0    N    0.23498968    0.79525002    0.15511981    -0.12140000
opls_238-1    N    0.37851021    0.77098976    0.15511981    -0.20930000
opls_239-2    N    0.29115011    0.90362022    0.13907881    0.08920000
opls_750-3    N    0.10236015    0.57526031    0.13907881    -0.17960000
opls_238-4    N    0.21073019    0.62746971    0.15511981    -0.20930000
opls_750-5    N    0.43071987    0.71481974    0.13908946    -0.17960000
opls_239-6    N    0.60806992    0.39789983    0.00477103    -0.14920000
opls_141-7    C    0.27474050    0.73123034    0.14584132    0.40910000
opls_142-8    C    0.38955019    0.62122971    0.02166933    0.06070000
opls_700-9    C    0.44698983    0.56593033    0.01615016    0.06330000
opls_145-10    C    0.54617045    0.60945022    0.15989084    -0.11330000
opls_145-11    C    0.59851978    0.55435022    0.15693024    -0.16280000
opls_916-12    C    0.55353000    0.45530000    0.00699947    0.16930000
opls_145-13    C    0.45417012    0.41300024    0.86124068    -0.16280000
opls_145-14    C    0.40114989    0.46747978    0.86780085    -0.11110000
opls_145-15    C    0.45163003    0.23190007    0.15691960    -0.16280000
opls_916-16    C    0.55067004    0.28596007    0.00699947    0.16930000
opls_916-17    C    0.72002010    0.45244019    0.00699947    0.16930000
opls_145-18    C    0.77407999    0.40745998    0.15691960    -0.16260000
opls_145-19    C    0.59297008    0.22890016    0.86125932    -0.16280000
opls_145-20    C    0.39651989    0.12443978    0.15988019    -0.11320000
opls_700-21    C    0.44004006    0.06878013    0.01615016    0.06330000
opls_145-22    C    0.53849992    0.12139984    0.86781949    -0.11120000
opls_145-23    C    0.88154046    0.45981026    0.15989084    -0.11330000
opls_700-24    C    0.93719957    0.55898981    0.01615016    0.06330000
opls_145-25    C    0.88456994    0.60481987    0.86780085    -0.11130000
opls_145-26    C    0.77706994    0.55179987    0.86124068    -0.16270000
opls_142-27    C    0.04993034    0.61643000    0.02166933    0.06070000
opls_142-28    C    0.38475023    0.95604978    0.02167998    0.04870000
opls_910-29    H    0.43057030    0.85542994    0.17731097    0.25280000
opls_910-30    H    0.25165035    0.58321004    0.17763046    0.20650000
opls_144-31    H    0.30689004    0.58016009    0.91973110    0.02500000
opls_146-32    H    0.58434993    0.69003986    0.27968051    0.04230000
opls_146-33    H    0.67882978    0.59073022    0.27832002    0.04230000
opls_146-34    H    0.41578986    0.33317039    0.73542066    0.04230000
opls_146-35    H    0.32022972    0.43155012    0.75182109    0.04230000
opls_146-36    H    0.41524013    0.27582026    0.27829872    0.04230000
opls_146-37    H    0.73016022    0.32714978    0.27832002    0.04230000
opls_146-38    H    0.67280970    0.27035006    0.73544995    0.04230000
opls_146-39    H    0.31593030    0.08202993    0.27965921    0.04230000
opls_146-40    H    0.57463956    0.07662978    0.75161874    0.04230000
opls_146-41    H    0.92395018    0.42162970    0.27968051    0.04230000
opls_146-42    H    0.92933954    0.68572975    0.75160011    0.04230000
opls_146-43    H    0.73434952    0.58900971    0.73649894    0.04230000
opls_144-44    H    0.09152020    0.69908040    0.91973908    0.02500000
opls_144-45    H    0.42580989    0.91445978    0.91974973    0.02500000
opls_290-46    H    0.14959007    0.75488015    0.15510916    0.24230000
MOF2_Cl-47    Cl    0.17302021    0.89778975    0.13906017    0.04790000
