#======================================================================
# Crystal Data Generated By AuToFF
#----------------------------------------------------------------------

data_AuToFF_phase_1

_cell_length_a                         28.1901
_cell_length_b                         28.3316
_cell_length_c                         3.6721
_cell_angle_alpha                      105.80
_cell_angle_beta                       72.20
_cell_angle_gamma                      101.16
_symmetry_space_group_name_H-M_alt     'P 1'
_symmetry_space_group_IT_number        1

loop_
_space_group_symop_operation_xyz
   'x, y, z'

loop_
   _atom_site_label
   _atom_site_type_symbol
   _atom_site_fract_x
   _atom_site_fract_y
   _atom_site_fract_z
   _atom_site_charge
opls_700-0    C    0.77701018    0.39265013    0.60916950    0.03400000
opls_145-1    C    0.82431021    0.38476996    0.61191912    -0.08020000
opls_700-2    C    0.83601013    0.33884018    0.60740987    0.03340000
opls_700-3    C    0.79784002    0.29810998    0.59802122    0.04020000
opls_700-4    C    0.74930005    0.30461996    0.59495140    0.03320000
opls_700-5    C    0.73888983    0.35191001    0.60144061    0.04220000
opls_145-6    C    0.80666019    0.25118000    0.59602951    -0.07640000
opls_145-7    C    0.76944995    0.21124009    0.58463152    -0.07660000
opls_700-8    C    0.72155992    0.21627017    0.57456134    0.03970000
opls_700-9    C    0.71103010    0.26361017    0.58437007    0.03410000
opls_700-10    C    0.66242009    0.27012000    0.58345059    0.03910000
opls_145-11    C    0.65359987    0.31707998    0.58550987    -0.10920000
opls_145-12    C    0.69090991    0.35697996    0.59384979    -0.07660000
opls_700-13    C    0.68371988    0.17534999    0.56081031    0.03410000
opls_145-14    C    0.63615015    0.18318006    0.56360987    -0.08150000
opls_700-15    C    0.62419998    0.22934985    0.57538975    0.03510000
opls_700-16    C    0.88834997    0.33647987    0.61510938    0.08180000
opls_700-17    C    0.69125000    0.12397987    0.54564923    0.08440000
opls_700-18    C    0.77066020    0.44380000    0.60696922    0.07530000
opls_700-19    C    0.57164984    0.23205996    0.57525168    0.07860000
opls_145-20    C    0.90811989    0.29153016    0.52431032    -0.07500000
opls_145-21    C    0.95712988    0.29050993    0.53222134    -0.09340000
opls_700-22    C    0.98753990    0.33470025    0.62994145    0.07510000
opls_145-23    C    0.96864016    0.37969020    0.71747975    -0.09190000
opls_145-24    C    0.91958985    0.38054015    0.71014156    -0.07490000
opls_145-25    C    0.64974988    0.09009011    0.67070101    -0.07490000
opls_145-26    C    0.65598010    0.04179994    0.65662978    -0.09340000
opls_700-27    C    0.70395001    0.02654011    0.51554151    0.07510000
opls_145-28    C    0.74532001    0.05965009    0.38600985    -0.09210000
opls_145-29    C    0.73896001    0.10778998    0.39947005    -0.07480000
opls_145-30    C    0.54021017    0.18829989    0.47603926    -0.07710000
opls_145-31    C    0.49091993    0.18968997    0.47635065    -0.09200000
opls_700-32    C    0.47203981    0.23490994    0.57595084    0.07400000
opls_145-33    C    0.50268991    0.27873992    0.67830064    -0.09350000
opls_145-34    C    0.55185013    0.27718003    0.67874129    -0.07480000
opls_145-35    C    0.81334994    0.47726008    0.49773068    -0.07500000
opls_145-36    C    0.80885021    0.52527991    0.49330956    -0.09220000
opls_700-37    C    0.76152004    0.54090028    0.59844130    0.07520000
opls_145-38    C    0.71860007    0.50826010    0.71148993    -0.09340000
opls_145-39    C    0.72326007    0.46023024    0.71645158    -0.07500000
opls_142-40    C    0.03885987    0.33483992    0.64556081    0.08810000
opls_142-41    C    0.75811010    0.59121005    0.58328021    0.09650000
opls_142-42    C    0.42050995    0.23561984    0.56880947    0.03330000
opls_142-43    C    0.71213999    0.97666012    0.50528038    0.09970000
opls_523-44    C    0.28808002    0.32951012    0.72648064    -0.07480000
opls_145-45    C    0.33661010    0.32550010    0.72788188    -0.11140000
opls_523-46    C    0.35238984    0.27907996    0.64920053    0.23540000
opls_522-47    C    0.31903984    0.23636005    0.56815144    -0.17380000
opls_521-48    C    0.27043001    0.24012989    0.56667969    0.22280000
opls_700-49    C    0.25453007    0.28694991    0.64578113    0.03950000
opls_521-50    C    0.19065001    0.19924993    0.48486976    0.16730000
opls_700-51    C    0.17308012    0.24550017    0.55762005    0.06260000
opls_700-52    C    0.20556017    0.28964020    0.63940061    0.03680000
opls_523-53    C    0.12466001    0.24893006    0.54418042    -0.15010000
opls_145-54    C    0.10788988    0.29462013    0.61426041    0.22980000
opls_145-55    C    0.14006013    0.33802019    0.69854969    -0.11140000
opls_608-56    C    0.18844991    0.33551010    0.70993006    -0.09340000
opls_700-57    C    0.15960015    0.15085020    0.40058047    0.03700000
opls_523-58    C    0.10711020    0.14536004    0.54653933    -0.07500000
opls_145-59    C    0.07902013    0.09916999    0.47091016    -0.07950000
opls_145-60    C    0.10317985    0.05776000    0.25069108    -0.07940000
opls_145-61    C    0.15539020    0.06256000    0.10710876    -0.07950000
opls_523-62    C    0.18339988    0.10881010    0.18284956    -0.07500000
opls_523-63    C    0.73770004    0.83376018    0.51302984    -0.09340000
opls_145-64    C    0.73124997    0.88124014    0.51023028    -0.13450000
opls_523-65    C    0.68288005    0.89528027    0.61468049    0.22670000
opls_522-66    C    0.64114025    0.86122033    0.72187150    -0.17910000
opls_521-67    C    0.64735999    0.81354017    0.72423923    0.22300000
opls_700-68    C    0.69588009    0.79948004    0.62032073    0.03950000
opls_521-69    C    0.60951025    0.73380027    0.83526091    0.12250000
opls_700-70    C    0.65762006    0.71810008    0.73815182    0.02250000
opls_700-71    C    0.70104019    0.75153014    0.62955956    0.03930000
opls_523-72    C    0.66365988    0.67066008    0.75307202    -0.15020000
opls_145-73    C    0.71120999    0.65587002    0.65957034    0.23180000
opls_145-74    C    0.75383020    0.68906013    0.54985003    -0.11140000
opls_608-75    C    0.74875018    0.73642013    0.53594038    -0.09340000
opls_700-76    C    0.56155988    0.70173000    0.94970198    0.03590000
opls_523-77    C    0.51817011    0.72371025    0.17836086    -0.07500000
opls_145-78    C    0.47225005    0.69474017    0.28264069    -0.07950000
opls_145-79    C    0.46911017    0.64335000    0.15723934    -0.07930000
opls_145-80    C    0.51185002    0.62097002    0.92676206    -0.07950000
opls_523-81    C    0.55770010    0.65002021    0.82259093    -0.07500000
opls_520-82    N    0.23864014    0.19852010    0.48936139    -0.23980000
opls_750-83    N    0.05803000    0.29588001    0.59908170    -0.24300000
opls_750-84    N    0.40236015    0.27642010    0.65382141    -0.23520000
opls_520-85    N    0.60645997    0.78090004    0.82720006    -0.23950000
opls_750-86    N    0.71527023    0.60695007    0.67644994    -0.24020000
opls_750-87    N    0.67534015    0.94393024    0.61717160    -0.28380000
opls_146-88    H    0.85579012    0.41677009    0.61814982    0.04970000
opls_146-89    H    0.84510987    0.24508001    0.60387003    0.04970000
opls_146-90    H    0.77764003    0.17333019    0.58333015    0.04970000
opls_146-91    H    0.61506000    0.32325996    0.58028090    0.04970000
opls_146-92    H    0.68270007    0.39485995    0.59461063    0.04970000
opls_146-93    H    0.60482000    0.15104996    0.55611011    0.04970000
opls_146-94    H    0.88406996    0.25511011    0.44250920    0.04970000
opls_146-95    H    0.97242007    0.25363994    0.45900984    0.04970000
opls_146-96    H    0.99326006    0.41586001    0.79520051    0.04980000
opls_146-97    H    0.90496008    0.41773008    0.78278023    0.04970000
opls_146-98    H    0.61041996    0.10187002    0.78535946    0.04970000
opls_146-99    H    0.62198005    0.01481021    0.76010176    0.04970000
opls_146-100    H    0.78445987    0.04739985    0.26873985    0.04970000
opls_146-101    H    0.77324019    0.13410992    0.28945892    0.04970000
opls_146-102    H    0.55484995    0.15096008    0.39372993    0.04970000
opls_146-103    H    0.46604007    0.15384019    0.39513999    0.04970000
opls_146-104    H    0.48750996    0.31583003    0.76156176    0.04970000
opls_146-105    H    0.57602990    0.31334026    0.76500172    0.04970000
opls_146-106    H    0.85241018    0.46531012    0.41095029    0.04970000
opls_146-107    H    0.84390023    0.55184995    0.40362973    0.04970000
opls_146-108    H    0.67981000    0.52085014    0.79960107    0.04970000
opls_146-109    H    0.68829985    0.43375994    0.81027053    0.04970000
opls_144-110    H    0.06390001    0.37132015    0.70201022    0.02940000
opls_144-111    H    0.79372996    0.61684025    0.48798071    0.02930000
opls_144-112    H    0.39610987    0.19946004    0.48664996    0.02930000
opls_144-113    H    0.75179022    0.96568010    0.39657943    0.02930000
opls_526-114    H    0.27546984    0.36752021    0.79113190    0.04970000
opls_617-115    H    0.36363006    0.36022989    0.79349962    0.04970000
opls_525-116    H    0.33158006    0.19830984    0.50303016    0.04970000
opls_526-117    H    0.09812989    0.21392015    0.47487008    0.04970000
opls_146-118    H    0.12667994    0.37556023    0.75813061    0.04970000
opls_617-119    H    0.21456985    0.37092022    0.77700192    0.04980000
opls_526-120    H    0.08696008    0.17880989    0.72897174    0.04970000
opls_146-121    H    0.03640990    0.09530000    0.58894983    0.04970000
opls_146-122    H    0.08028017    0.02007017    0.18826066    0.04970000
opls_146-123    H    0.17515998    0.02875003    0.92814862    0.04970000
opls_526-124    H    0.22601993    0.11218014    0.06572937    0.04970000
opls_526-125    H    0.77709012    0.82264020    0.42789158    0.04970000
opls_617-126    H    0.76537001    0.90892012    0.42277130    0.04970000
opls_525-127    H    0.60170002    0.87225019    0.80813193    0.04980000
opls_526-128    H    0.62931013    0.64334013    0.84297217    0.04970000
opls_146-129    H    0.79286013    0.67734017    0.47152119    0.04970000
opls_617-130    H    0.78383024    0.76301006    0.44742972    0.04970000
opls_526-131    H    0.52014991    0.76564000    0.28110137    0.04970000
opls_146-132    H    0.43736014    0.71307016    0.47004944    0.04970000
opls_146-133    H    0.43168018    0.61970017    0.24302094    0.04970000
opls_146-134    H    0.50930994    0.57902004    0.82373073    0.04970000
opls_526-135    H    0.59223026    0.63129009    0.63215936    0.04970000
