#======================================================================
# Crystal Data Generated By AuToFF
#----------------------------------------------------------------------

data_AuToFF_phase_1

_cell_length_a                         37.2718
_cell_length_b                         37.2718
_cell_length_c                         7.0430
_cell_angle_alpha                      90.00
_cell_angle_beta                       90.00
_cell_angle_gamma                      120.00
_symmetry_space_group_name_H-M_alt     'P 1'
_symmetry_space_group_IT_number        1

loop_
_space_group_symop_operation_xyz
   'x, y, z'

loop_
   _atom_site_label
   _atom_site_type_symbol
   _atom_site_fract_x
   _atom_site_fract_y
   _atom_site_fract_z
   _atom_site_charge
opls_142-0    C    0.55938006    0.01483007    0.28566946    0.07260000
opls_700-1    C    0.64624994    0.83193988    0.26255005    0.06530000
opls_145-2    C    0.68959991    0.85587978    0.24946046    -0.16680000
opls_700-3    C    0.70924984    0.89779986    0.19818969    0.07590000
opls_145-4    C    0.68526986    0.91670976    0.17277013    -0.17010000
opls_700-5    C    0.64232996    0.89462993    0.20296039    0.06730000
opls_145-6    C    0.62294009    0.85197004    0.24165980    -0.16340000
opls_700-7    C    0.61834985    0.91668993    0.20302996    0.07180000
opls_700-8    C    0.62565997    0.78611998    0.29129064    0.07070000
opls_700-9    C    0.75475991    0.92178003    0.17055942    0.06770000
opls_145-10    C    0.63674984    0.95762978    0.27092006    -0.11350000
opls_145-11    C    0.61402995    0.97792978    0.28385063    -0.16220000
opls_145-12    C    0.57210982    0.95762978    0.22985943    0.19880000
opls_145-13    C    0.55369986    0.91701987    0.16139003    -0.16230000
opls_145-14    C    0.57658985    0.89679980    0.14594065    -0.12060000
opls_145-15    C    0.77640984    0.90278989    0.10057930    -0.11450000
opls_145-16    C    0.81912981    0.92557979    0.07341048    -0.16330000
opls_145-17    C    0.84173982    0.96821986    0.11558995    0.19850000
opls_145-18    C    0.82119987    0.98837982    0.18346017    -0.15610000
opls_145-19    C    0.77863999    0.96662002    0.21388045    -0.09630000
opls_145-20    C    0.64539008    0.76412999    0.23200057    -0.11350000
opls_145-21    C    0.62568994    0.72123000    0.24923044    -0.17430000
opls_145-22    C    0.58538996    0.69886980    0.31950021    0.20370000
opls_145-23    C    0.56545011    0.72029005    0.38191964    -0.15960000
opls_145-24    C    0.58554986    0.76344997    0.36946046    -0.12530000
opls_700-25    C    0.52982007    0.02974999    0.31539969    -0.03900000
opls_166-26    C    0.48705983    0.00252987    0.34309953    0.22180000
opls_145-27    C    0.46080005    0.01905985    0.36855033    -0.23170000
opls_700-28    C    0.47608990    0.06184985    0.36137015    -0.04970000
opls_166-29    C    0.51901999    0.08913008    0.33861991    0.22670000
opls_145-30    C    0.54528994    0.07258988    0.31328979    -0.23400000
opls_142-31    C    0.44585009    0.07638995    0.37338066    0.07350000
opls_145-32    C    0.43011000    0.13197988    0.35566946    0.20650000
opls_145-33    C    0.38998998    0.10905986    0.28031947    -0.16080000
opls_145-34    C    0.36551011    0.12728013    0.25749965    -0.11760000
opls_700-35    C    0.38004991    0.16868004    0.31266932    0.07020000
opls_145-36    C    0.42008988    0.19107990    0.39222064    -0.12520000
opls_145-37    C    0.44496993    0.17306007    0.41003976    -0.16120000
opls_700-38    C    0.35455999    0.18869006    0.27482039    0.06660000
opls_145-39    C    0.31130983    0.16445987    0.25575039    -0.16310000
opls_700-40    C    0.28746012    0.18190997    0.19606986    0.06460000
opls_145-41    C    0.30702987    0.22480996    0.16728951    -0.16140000
opls_700-42    C    0.34945985    0.25025985    0.20276019    0.06450000
opls_145-43    C    0.37316987    0.23181992    0.25038052    -0.15320000
opls_700-44    C    0.24221001    0.15534013    0.16304984    0.07130000
opls_700-45    C    0.36844003    0.29605993    0.19947040    0.07210000
opls_145-46    C    0.22562986    0.11437983    0.09728951    -0.11950000
opls_145-47    C    0.18316014    0.08952012    0.06668039    -0.15520000
opls_145-48    C    0.15657995    0.10523004    0.09629987    0.20360000
opls_145-49    C    0.17275000    0.14590996    0.16377964    -0.16360000
opls_145-50    C    0.21509996    0.17059990    0.19768990    -0.11370000
opls_145-51    C    0.34556000    0.31458009    0.26134034    -0.11760000
opls_145-52    C    0.36411007    0.35752005    0.27441005    -0.15830000
opls_145-53    C    0.40598992    0.38281999    0.23087037    0.19650000
opls_145-54    C    0.42871002    0.36474997    0.16163993    -0.16020000
opls_145-55    C    0.41000004    0.32177997    0.14522931    -0.12080000
opls_142-56    C    0.08700986    0.09061993    0.02491978    0.07320000
opls_142-57    C    0.91090994    0.97905995    0.05370013    0.07300000
opls_700-58    C    0.51214996    0.58309987    0.34402953    -0.04860000
opls_142-59    C    0.52742982    0.62811986    0.35132046    0.07280000
opls_181-60    C    0.57314984    0.15880995    0.41744001    -0.19070000
opls_181-61    C    0.43321988    0.93257985    0.26767003    -0.19070000
opls_145-62    C    0.46968994    0.55593985    0.37131052    -0.24970000
opls_166-63    C    0.45275989    0.51260985    0.36392020    0.24180000
opls_700-64    C    0.47901008    0.49685005    0.31502059    -0.04760000
opls_145-65    C    0.52150001    0.52395988    0.29130058    -0.22460000
opls_166-66    C    0.53866996    0.56688001    0.31116996    0.21930000
opls_142-67    C    0.46341988    0.45221980    0.28702967    0.07260000
opls_700-68    C    0.95571005    0.00801002    0.03093000    -0.04720000
opls_145-69    C    0.98237989    0.99177002    0.03861991    -0.23450000
opls_166-70    C    0.02554002    0.01763009    0.02683942    0.22710000
opls_700-71    C    0.04211994    0.06089999    0.01448956    -0.04350000
opls_145-72    C    0.01537982    0.07693985    0.99735056    -0.23690000
opls_166-73    C    0.97225016    0.05108009    0.00892943    0.22330000
opls_181-74    C    0.60903006    0.58301003    0.37399972    -0.19070000
opls_181-75    C    0.38562986    0.49938984    0.48635951    -0.18400000
opls_181-76    C    0.04058980    0.96305974    0.94718018    -0.19070000
opls_181-77    C    0.95631004    0.10526009    0.08161011    -0.19070000
opls_142-78    C    0.55304995    0.45410992    0.83992049    0.07270000
opls_700-79    C    0.63991997    0.27120982    0.81679966    0.06530000
opls_145-80    C    0.68328002    0.29515003    0.80372001    -0.16360000
opls_700-81    C    0.70291989    0.33708002    0.75243930    0.07590000
opls_145-82    C    0.67894005    0.35598000    0.72702967    -0.17010000
opls_700-83    C    0.63599999    0.33389986    0.75721000    0.06740000
opls_145-84    C    0.61661012    0.29123997    0.79591935    -0.16350000
opls_700-85    C    0.61202016    0.35597009    0.75727957    0.07170000
opls_700-86    C    0.61933979    0.22539983    0.84555019    0.07070000
opls_700-87    C    0.74842994    0.36104997    0.72481045    0.06760000
opls_145-88    C    0.63042995    0.39690003    0.82517961    -0.11340000
opls_145-89    C    0.60770014    0.41720002    0.83810024    -0.16230000
opls_145-90    C    0.56578000    0.39690003    0.78411046    0.19840000
opls_145-91    C    0.54736989    0.35628981    0.71564958    -0.16220000
opls_145-92    C    0.57025989    0.33607996    0.70020020    -0.12060000
opls_145-93    C    0.77007987    0.34205983    0.65483033    -0.11680000
opls_145-94    C    0.81279985    0.36485995    0.62766009    -0.16330000
opls_145-95    C    0.83541978    0.40748979    0.66983956    0.19780000
opls_145-96    C    0.81487006    0.42765007    0.73771972    -0.15830000
opls_145-97    C    0.77230988    0.40589987    0.76813006    -0.09630000
opls_145-98    C    0.63905997    0.20340984    0.78626012    -0.11350000
opls_145-99    C    0.61935997    0.16049994    0.80348005    -0.16500000
opls_145-100    C    0.57906001    0.13814996    0.87374982    0.20410000
opls_145-101    C    0.55912000    0.15956990    0.93617067    -0.15960000
opls_145-102    C    0.57922002    0.20272982    0.92371007    -0.12530000
opls_700-103    C    0.52348996    0.46902984    0.86964930    -0.03900000
opls_166-104    C    0.48074007    0.44181003    0.89735056    0.22180000
opls_145-105    C    0.45446981    0.45832978    0.92280988    -0.23400000
opls_700-106    C    0.46975995    0.50113002    0.91561976    -0.04970000
opls_166-107    C    0.51268988    0.52840993    0.89287945    0.22670000
opls_145-108    C    0.53895999    0.51187004    0.86754934    -0.23400000
opls_142-109    C    0.43951985    0.51565989    0.92764021    0.07450000
opls_145-110    C    0.42378003    0.57124981    0.90992049    0.20650000
opls_145-111    C    0.38366002    0.54834002    0.83458043    -0.16430000
opls_145-112    C    0.35918000    0.56655998    0.81176061    -0.11470000
opls_700-113    C    0.37371994    0.60794998    0.86693029    0.07010000
opls_145-114    C    0.41375991    0.63034984    0.94648019    -0.12520000
opls_145-115    C    0.43863996    0.61233001    0.96428937    -0.16090000
opls_700-116    C    0.34823002    0.62796000    0.82907994    0.06890000
opls_145-117    C    0.30498014    0.60374003    0.81000994    -0.16460000
opls_700-118    C    0.28112988    0.62117991    0.75032941    0.06420000
opls_145-119    C    0.30069990    0.66407990    0.72154054    -0.16140000
opls_700-120    C    0.34312989    0.68954001    0.75701974    0.06450000
opls_145-121    C    0.36683976    0.67109977    0.80464007    -0.16280000
opls_700-122    C    0.23588004    0.59461007    0.71729945    0.07170000
opls_700-123    C    0.36210992    0.73533978    0.75372001    0.07200000
opls_145-124    C    0.21929991    0.55365999    0.65154054    -0.11810000
opls_145-125    C    0.17682990    0.52879006    0.62093000    -0.15510000
opls_145-126    C    0.15024998    0.54449998    0.65055942    0.20650000
opls_145-127    C    0.16641989    0.58518982    0.71804061    -0.16290000
opls_145-128    C    0.20876999    0.60986984    0.75193951    -0.11350000
opls_145-129    C    0.33922989    0.75385994    0.81559989    -0.11760000
opls_145-130    C    0.35777996    0.79679990    0.82865966    -0.16220000
opls_145-131    C    0.39965995    0.82208993    0.78512992    0.19660000
opls_145-132    C    0.42237991    0.80402982    0.71588954    -0.16020000
opls_145-133    C    0.40367007    0.76104991    0.69949027    -0.12080000
opls_142-134    C    0.08068001    0.52989978    0.57916939    0.07280000
opls_142-135    C    0.90457997    0.41832988    0.60794974    0.07300000
opls_700-136    C    0.50582000    0.02238003    0.89828056    -0.04860000
opls_142-137    C    0.52110013    0.06740002    0.90557007    0.07280000
opls_181-138    C    0.56682000    0.59808980    0.97168962    -0.19070000
opls_181-139    C    0.42688992    0.37186001    0.82192958    -0.19060000
opls_145-140    C    0.46335998    0.99522001    0.92557007    -0.25430000
opls_166-141    C    0.44642992    0.95187979    0.91816981    0.24180000
opls_700-142    C    0.47267997    0.93612991    0.86927020    -0.04760000
opls_145-143    C    0.51517004    0.96322982    0.84556013    -0.22460000
opls_166-144    C    0.53233985    0.00615986    0.86541957    0.22130000
opls_142-145    C    0.45709984    0.89148974    0.84128070    0.07260000
opls_700-146    C    0.94937994    0.44728987    0.58517961    -0.04700000
opls_145-147    C    0.97604992    0.43103996    0.59286952    -0.23450000
opls_166-148    C    0.01920991    0.45690995    0.58109044    0.22720000
opls_700-149    C    0.03578997    0.50016993    0.56874059    -0.04340000
opls_145-150    C    0.00906006    0.51622002    0.55161011    -0.23690000
opls_166-151    C    0.96592005    0.49035994    0.56319040    0.22330000
opls_181-152    C    0.60269995    0.02228988    0.92824933    -0.19070000
opls_181-153    C    0.37931010    0.93867000    0.04061054    -0.18890000
opls_181-154    C    0.03425985    0.40233990    0.50142979    -0.19060000
opls_181-155    C    0.94999000    0.54453003    0.63585972    -0.19070000
opls_750-156    N    0.54654988    0.97595972    0.25424961    -0.33780000
opls_750-157    N    0.56625994    0.65465995    0.32344030    -0.33770000
opls_750-158    N    0.88557994    0.99268983    0.08654977    -0.33780000
opls_750-159    N    0.45747999    0.11547995    0.36513986    -0.33790000
opls_750-160    N    0.42426988    0.42648985    0.26130058    -0.33770000
opls_750-161    N    0.11316005    0.07843993    0.06565952    -0.33780000
opls_750-162    N    0.54022006    0.41522997    0.80850064    -0.33790000
opls_750-163    N    0.55992998    0.09392989    0.87768990    -0.33780000
opls_750-164    N    0.87924999    0.43196999    0.64079938    -0.33790000
opls_750-165    N    0.45115002    0.55474989    0.91938946    -0.33780000
opls_750-166    N    0.41793992    0.86577001    0.81556013    -0.33760000
opls_750-167    N    0.10682981    0.51770987    0.61991055    -0.33780000
opls_146-168    H    0.70841000    0.84209003    0.28136022    0.12510000
opls_146-169    H    0.69998008    0.94869995    0.12758058    0.12730000
opls_146-170    H    0.58971996    0.83460978    0.25672015    0.10370000
opls_146-171    H    0.66832004    0.97353983    0.32264944    0.12520000
opls_146-172    H    0.62911012    0.00865999    0.34439017    0.12330000
opls_146-173    H    0.52140997    0.90098992    0.11967059    0.12100000
opls_146-174    H    0.56151992    0.86571982    0.08858015    0.12740000
opls_146-175    H    0.76025998    0.87038983    0.06113020    0.12220000
opls_146-176    H    0.83391987    0.90955976    0.01399972    0.12500000
opls_146-177    H    0.83858000    0.02116002    0.21582990    0.12230000
opls_146-178    H    0.76376982    0.98263975    0.27342042    0.12480000
opls_146-179    H    0.67545007    0.77950997    0.16451938    0.12080000
opls_146-180    H    0.64131991    0.70504980    0.20032941    0.11770000
opls_146-181    H    0.53486993    0.70425979    0.44398978    0.12490000
opls_146-182    H    0.56962991    0.77875993    0.42468976    0.12620000
opls_144-183    H    0.59208980    0.03741984    0.28522931    0.12650000
opls_146-184    H    0.42814005    0.99838003    0.39501065    0.12060000
opls_146-185    H    0.57793990    0.09323995    0.28640068    0.12060000
opls_144-186    H    0.41330001    0.05342996    0.38507028    0.11610000
opls_146-187    H    0.37819011    0.07785006    0.22845946    0.12590000
opls_146-188    H    0.33602008    0.10915992    0.18715036    0.12080000
opls_146-189    H    0.43246996    0.22243003    0.44286952    0.12510000
opls_146-190    H    0.47590004    0.19106998    0.46806049    0.12100000
opls_146-191    H    0.29585998    0.13186990    0.28978986    0.11890000
opls_146-192    H    0.28931983    0.23854983    0.11529036    0.12550000
opls_146-193    H    0.40610003    0.25135997    0.26946046    0.10570000
opls_146-194    H    0.24541016    0.10160005    0.06614937    0.12640000
opls_146-195    H    0.17095004    0.05808014    0.01629987    0.12230000
opls_146-196    H    0.15270991    0.15830001    0.19653983    0.12320000
opls_146-197    H    0.22632990    0.20127993    0.25553031    0.12550000
opls_146-198    H    0.31374990    0.29594995    0.30767003    0.12530000
opls_146-199    H    0.34625006    0.37111988    0.32673009    0.12030000
opls_146-200    H    0.46063988    0.38354989    0.11785035    0.12620000
opls_146-201    H    0.42812989    0.30880997    0.08952009    0.12220000
opls_144-202    H    0.09766011    0.12322013    0.00414028    0.11080000
opls_144-203    H    0.90014985    0.94622987    0.05319040    0.12600000
opls_144-204    H    0.50524997    0.63837999    0.37297033    0.12580000
opls_185-205    H    0.59740997    0.17612002    0.30976998    0.07720000
opls_185-206    H    0.58365000    0.14199991    0.51176061    0.07590000
opls_185-207    H    0.56962011    0.18165996    0.50435042    0.07600000
opls_185-208    H    0.43706996    0.90989992    0.18099957    0.07600000
opls_185-209    H    0.42241000    0.94909991    0.17311941    0.07630000
opls_185-210    H    0.40902994    0.91510001    0.37538975    0.07720000
opls_146-211    H    0.44998986    0.56903997    0.39716030    0.12500000
opls_146-212    H    0.54138005    0.51163985    0.25262956    0.11900000
opls_144-213    H    0.48550992    0.44141999    0.28762033    0.10970000
opls_146-214    H    0.96949005    0.95882996    0.06079938    0.12100000
opls_146-215    H    0.02831003    0.10991988    0.97624024    0.12230000
opls_185-216    H    0.62639994    0.57622994    0.26599035    0.07660000
opls_185-217    H    0.59307009    0.55585992    0.47002982    0.07610000
opls_185-218    H    0.63175010    0.60992994    0.45866960    0.07600000
opls_185-219    H    0.35754996    0.47296995    0.54909982    0.07600000
opls_185-220    H    0.37548004    0.51395998    0.37846940    0.08110000
opls_185-221    H    0.40262007    0.52232008    0.59865966    0.10090000
opls_185-222    H    0.06729989    0.96681984    0.86216953    0.07600000
opls_185-223    H    0.01378985    0.95312986    0.85016044    0.07590000
opls_185-224    H    0.03302004    0.93828987    0.05293057    0.09260000
opls_185-225    H    0.96374995    0.12996986    0.97576033    0.07730000
opls_185-226    H    0.98299995    0.11561007    0.17971035    0.07590000
opls_185-227    H    0.92924999    0.10100987    0.16519949    0.07600000
opls_146-228    H    0.70208003    0.28135997    0.83561976    0.12320000
opls_146-229    H    0.69365989    0.38797980    0.68184012    0.12480000
opls_146-230    H    0.58339015    0.27388003    0.81097970    0.10380000
opls_146-231    H    0.66199009    0.41281999    0.87691041    0.12480000
opls_146-232    H    0.62277989    0.44792993    0.89864972    0.12320000
opls_146-233    H    0.51508001    0.34027008    0.67392020    0.12110000
opls_146-234    H    0.55519010    0.30499007    0.64282976    0.12530000
opls_146-235    H    0.75393995    0.30966999    0.61537981    0.12200000
opls_146-236    H    0.82759006    0.34883000    0.56824933    0.12800000
opls_146-237    H    0.83224989    0.46043987    0.77007951    0.11750000
opls_146-238    H    0.75743987    0.42191991    0.82767003    0.12480000
opls_146-239    H    0.66911996    0.21878982    0.71877041    0.12080000
opls_146-240    H    0.63499010    0.14432004    0.75459037    0.12230000
opls_146-241    H    0.52854012    0.14353004    0.99823939    0.12490000
opls_146-242    H    0.56329994    0.21802987    0.97893937    0.12180000
opls_144-243    H    0.58575998    0.47669009    0.83948034    0.12810000
opls_146-244    H    0.42181008    0.43764997    0.94927020    0.12070000
opls_146-245    H    0.57160979    0.53251981    0.84066023    0.12060000
opls_144-246    H    0.40697997    0.49269990    0.93932983    0.11090000
opls_146-247    H    0.37185987    0.51712000    0.78271049    0.12500000
opls_146-248    H    0.32968997    0.54843977    0.74139997    0.12080000
opls_146-249    H    0.42613999    0.66169997    0.99713048    0.12510000
opls_146-250    H    0.46956993    0.63034984    0.02231010    0.12230000
opls_146-251    H    0.28953003    0.57115006    0.84403947    0.11890000
opls_146-252    H    0.28298986    0.67781976    0.66954991    0.12550000
opls_146-253    H    0.39977985    0.69063982    0.82371007    0.12070000
opls_146-254    H    0.23908005    0.54087990    0.62041034    0.12640000
opls_146-255    H    0.16462007    0.49735008    0.57054948    0.12230000
opls_146-256    H    0.14637980    0.59757986    0.75079938    0.12320000
opls_146-257    H    0.21999979    0.64055978    0.80978986    0.12230000
opls_146-258    H    0.30741979    0.73522980    0.86191964    0.12220000
opls_146-259    H    0.33991982    0.81038982    0.88098964    0.12100000
opls_146-260    H    0.45430991    0.82281983    0.67209996    0.12590000
opls_146-261    H    0.42179978    0.74808982    0.64376970    0.12200000
opls_144-262    H    0.09133992    0.56249998    0.55839983    0.11080000
opls_144-263    H    0.89381988    0.38549981    0.60744001    0.12600000
opls_144-264    H    0.49893005    0.07765984    0.92721993    0.12750000
opls_185-265    H    0.59109006    0.61539987    0.86401959    0.09300000
opls_185-266    H    0.57732003    0.58126985    0.06602016    0.07630000
opls_185-267    H    0.56329000    0.62093981    0.05860003    0.07600000
opls_185-268    H    0.43073999    0.34916986    0.73525060    0.07600000
opls_185-269    H    0.41608004    0.38838007    0.72738038    0.07630000
opls_185-270    H    0.40269983    0.35437986    0.92963936    0.07720000
opls_146-271    H    0.44366002    0.00831982    0.95141985    0.12500000
opls_146-272    H    0.53505010    0.95092001    0.80688059    0.11880000
opls_144-273    H    0.47918988    0.88068992    0.84186994    0.10970000
opls_146-274    H    0.96315994    0.39810982    0.61505040    0.12290000
opls_146-275    H    0.02197979    0.54918981    0.53048985    0.12070000
opls_185-276    H    0.62006997    0.01549987    0.82024989    0.09300000
opls_185-277    H    0.58674014    0.99514008    0.02427943    0.07610000
opls_185-278    H    0.62542015    0.04921010    0.01292063    0.07600000
opls_185-279    H    0.35122992    0.91223988    0.10335936    0.07610000
opls_185-280    H    0.36914993    0.95323984    0.93272043    0.07980000
opls_185-281    H    0.39628996    0.96159993    0.15291069    0.10090000
opls_185-282    H    0.06096993    0.40610001    0.41642056    0.07600000
opls_185-283    H    0.00745990    0.39241002    0.40441999    0.07580000
opls_185-284    H    0.02670001    0.37757003    0.60718018    0.07910000
opls_185-285    H    0.95741999    0.56925002    0.53000994    0.09260000
opls_185-286    H    0.97666984    0.55488992    0.73395996    0.07590000
opls_185-287    H    0.92292004    0.54029003    0.71946046    0.07600000
opls_179-288    O    0.53443980    0.13208986    0.32648019    -0.20730000
opls_179-289    O    0.47184001    0.95965993    0.35856027    -0.20740000
opls_179-290    O    0.58134987    0.59379993    0.28339060    -0.20240000
opls_179-291    O    0.41070994    0.48428992    0.40530030    -0.19940000
opls_179-292    O    0.05239002    0.00140001    0.04141985    -0.19290000
opls_179-293    O    0.94536006    0.06710013    0.98751952    -0.20990000
opls_179-294    O    0.52811011    0.57137002    0.88072980    -0.20740000
opls_179-295    O    0.46551006    0.39894009    0.91281982    -0.20730000
opls_179-296    O    0.57501990    0.03306986    0.83764021    -0.20240000
opls_179-297    O    0.40438989    0.92355986    0.95954991    -0.19940000
opls_179-298    O    0.04605991    0.44067986    0.59567940    -0.19300000
opls_179-299    O    0.93903009    0.50637006    0.54178049    -0.19910000
