#======================================================================
# Crystal Data Generated By AuToFF
#----------------------------------------------------------------------

data_AuToFF_phase_1

_cell_length_a                         6.5547
_cell_length_b                         14.8273
_cell_length_c                         9.2284
_cell_angle_alpha                      90.00
_cell_angle_beta                       72.64
_cell_angle_gamma                      90.00
_symmetry_space_group_name_H-M_alt     'P 1'
_symmetry_space_group_IT_number        1

loop_
_space_group_symop_operation_xyz
   'x, y, z'

loop_
   _atom_site_label
   _atom_site_type_symbol
   _atom_site_fract_x
   _atom_site_fract_y
   _atom_site_fract_z
   _atom_site_charge
opls_750-0    N    0.18401946    0.71033027    0.11524030    -0.15540000
opls_520-1    N    0.68182072    0.92016011    0.84297964    -0.19250000
opls_750-2    N    0.72779085    0.14125026    0.85849049    -0.17800000
opls_750-3    N    0.81598054    0.71033027    0.88475970    -0.15540000
opls_520-4    N    0.31817928    0.92016011    0.15702036    -0.19250000
opls_750-5    N    0.27221068    0.14125026    0.14150951    -0.17800000
opls_142-6    C    0.28797939    0.77107026    0.15515047    0.03060000
opls_521-7    C    0.71916056    0.84934007    0.91747985    0.14390000
opls_521-8    C    0.70616029    0.99679982    0.90254007    0.14390000
opls_522-9    C    0.76208977    0.00224990    0.04056980    -0.20450000
opls_523-10    C    0.79544013    0.93164029    0.11676958    -0.15590000
opls_522-11    C    0.77607928    0.85536005    0.05513038    -0.20450000
opls_142-12    C    0.31176085    0.06893028    0.18605977    0.01730000
opls_145-13    C    0.84338100    0.63780999    0.80582037    0.21010000
opls_145-14    C    0.02214135    0.60041005    0.81027994    -0.21320000
opls_145-15    C    0.06900039    0.53991017    0.71586041    -0.20650000
opls_145-16    C    0.93482094    0.51436000    0.61830057    0.03390000
opls_145-17    C    0.75106072    0.54738017    0.62011029    -0.21120000
opls_145-18    C    0.70464070    0.60865026    0.71374984    -0.20640000
opls_145-19    C    0.11223007    0.33533010    0.39983061    0.03900000
opls_145-20    C    0.92082973    0.33871979    0.74205015    -0.21120000
opls_145-21    C    0.84527072    0.27876012    0.82816021    -0.21100000
opls_145-22    C    0.74798020    0.21229017    0.77386998    0.20930000
opls_145-23    C    0.69874016    0.21329979    0.63419970    -0.21320000
opls_145-24    C    0.76701976    0.27461979    0.54865049    -0.21130000
opls_142-25    C    0.71202013    0.77107026    0.84485066    0.03060000
opls_521-26    C    0.28083944    0.84934007    0.08252015    0.14400000
opls_521-27    C    0.29383971    0.99679982    0.09745993    0.14390000
opls_522-28    C    0.23791023    0.00224990    0.95943020    -0.20450000
opls_523-29    C    0.20455987    0.93164029    0.88323042    -0.15580000
opls_522-30    C    0.22392072    0.85536005    0.94486962    -0.20440000
opls_142-31    C    0.68824067    0.06893028    0.81394023    0.01730000
opls_145-32    C    0.15662053    0.63780999    0.19417963    0.21010000
opls_145-33    C    0.97786018    0.60041005    0.18972006    -0.21320000
opls_145-34    C    0.93100113    0.53991017    0.28413959    -0.20650000
opls_145-35    C    0.06518011    0.51436000    0.38170056    0.03390000
opls_145-36    C    0.24894080    0.54738017    0.37988971    -0.21110000
opls_145-37    C    0.29536082    0.60865026    0.28625016    -0.20620000
opls_145-38    C    0.88777098    0.33533010    0.60017053    0.03900000
opls_145-39    C    0.07917027    0.33871979    0.25794985    -0.21110000
opls_145-40    C    0.15473080    0.27876012    0.17183979    -0.21100000
opls_145-41    C    0.25201980    0.21229017    0.22613002    0.20940000
opls_145-42    C    0.30125984    0.21329979    0.36580030    -0.21320000
opls_145-43    C    0.23298024    0.27461979    0.45134951    -0.21120000
opls_141-44    C    0.00000052    0.46599988    0.50000057    0.01100000
opls_141-45    C    0.00000052    0.38397011    0.50000057    0.00440000
opls_144-46    H    0.35808999    0.76941992    0.25416012    0.02350000
opls_525-47    H    0.78352961    0.06099020    0.08789025    0.23600000
opls_526-48    H    0.84124022    0.93610030    0.22252990    0.11550000
opls_525-49    H    0.80873981    0.80113979    0.11331024    0.23660000
opls_144-50    H    0.33755002    0.05814005    0.29357984    0.10090000
opls_146-51    H    0.12954998    0.62255030    0.88056013    0.04000000
opls_146-52    H    0.21266998    0.51571021    0.71424030    0.23600000
opls_146-53    H    0.64828036    0.52847990    0.54426018    0.03940000
opls_146-54    H    0.56358110    0.63512979    0.71090017    0.23690000
opls_146-55    H    0.01461008    0.38383994    0.78539015    0.23690000
opls_146-56    H    0.87327001    0.28024994    0.93652043    0.08650000
opls_146-57    H    0.61533014    0.16547989    0.58902047    0.23650000
opls_146-58    H    0.73679972    0.27155989    0.43978052    0.11390000
opls_144-59    H    0.64191001    0.76941992    0.74583988    0.02350000
opls_525-60    H    0.21647039    0.06099020    0.91210975    0.23600000
opls_526-61    H    0.15875978    0.93610030    0.77747010    0.11550000
opls_525-62    H    0.19126019    0.80113979    0.88668976    0.23660000
opls_144-63    H    0.66244998    0.05814005    0.70642016    0.10090000
opls_146-64    H    0.87045002    0.62255030    0.11943987    0.04000000
opls_146-65    H    0.78733002    0.51571021    0.28575970    0.23600000
opls_146-66    H    0.35172117    0.52847990    0.45573982    0.03940000
opls_146-67    H    0.43642042    0.63512979    0.28909983    0.23700000
opls_146-68    H    0.98538992    0.38383994    0.21460985    0.23690000
opls_146-69    H    0.12672999    0.28024994    0.06347957    0.08650000
opls_146-70    H    0.38466986    0.16547989    0.41097953    0.23650000
opls_146-71    H    0.26319980    0.27155989    0.56022062    0.11390000
