#======================================================================
# Crystal Data Generated By AuToFF
#----------------------------------------------------------------------

data_AuToFF_phase_1

_cell_length_a                         22.6000
_cell_length_b                         22.6963
_cell_length_c                         6.9626
_cell_angle_alpha                      90.85
_cell_angle_beta                       90.42
_cell_angle_gamma                      60.22
_symmetry_space_group_name_H-M_alt     'P 1'
_symmetry_space_group_IT_number        1

loop_
_space_group_symop_operation_xyz
   'x, y, z'

loop_
   _atom_site_label
   _atom_site_type_symbol
   _atom_site_fract_x
   _atom_site_fract_y
   _atom_site_fract_z
   _atom_site_charge
opls_700-0    C    0.02667999    0.04246985    0.00151971    0.00180000
opls_700-1    C    0.95509981    0.07018998    0.00678987    0.07950000
opls_700-2    C    0.92812979    0.02591011    0.00867012    0.00270000
opls_700-3    C    0.97158005    0.95451972    0.00875056    0.07900000
opls_700-4    C    0.04304985    0.92776984    0.01249957    0.00460000
opls_700-5    C    0.07102008    0.97152991    0.01072992    0.07890000
opls_142-6    C    0.05064023    0.09130979    0.97553951    0.06980000
opls_142-7    C    0.85463004    0.05185002    0.02258024    0.07670000
opls_142-8    C    0.09101982    0.85461981    0.03137964    0.07140000
opls_145-9    C    0.73974970    0.13069015    0.96267079    0.18800000
opls_145-10    C    0.69934004    0.20184992    0.96783034    -0.22670000
opls_700-11    C    0.70741000    0.09087010    0.97204044    0.08910000
opls_700-12    C    0.62869991    0.23694983    0.98746021    0.08050000
opls_145-13    C    0.63664016    0.12602992    0.98841973    -0.24020000
opls_145-14    C    0.59561986    0.19736977    0.99669053    0.21810000
opls_145-15    C    0.13245014    0.12771989    0.01077014    0.18460000
opls_145-16    C    0.20403990    0.09743017    0.01065954    -0.22850000
opls_700-17    C    0.09262986    0.19987983    0.01012951    0.08520000
opls_700-18    C    0.23913017    0.13340003    0.00961958    0.08900000
opls_145-19    C    0.12781002    0.23580010    0.01910989    -0.22270000
opls_145-20    C    0.19937972    0.20533020    0.01832992    0.18540000
opls_145-21    C    0.12784973    0.73870995    0.97689979    0.22030000
opls_145-22    C    0.09695987    0.69804978    0.98132965    -0.22960000
opls_700-23    C    0.19998973    0.70687006    0.98994088    0.08510000
opls_700-24    C    0.13249993    0.62789990    0.00450025    0.08830000
opls_145-25    C    0.23544000    0.63678984    0.01537955    -0.23780000
opls_145-26    C    0.20449011    0.59615993    0.02301978    0.19160000
opls_142-27    C    0.24212000    0.47920013    0.98174046    0.06920000
opls_700-28    C    0.37548990    0.26307991    0.00491968    0.07890000
opls_142-29    C    0.27767965    0.24433024    0.96594004    0.06880000
opls_142-30    C    0.47806001    0.28095015    0.99211990    0.06970000
opls_700-31    C    0.36171999    0.37769006    0.00773933    0.06370000
opls_700-32    C    0.29013012    0.40588996    0.00359962    -0.00320000
opls_700-33    C    0.30378002    0.29205978    0.99646071    -0.00850000
opls_700-34    C    0.26067974    0.36323991    0.99950013    0.07410000
opls_700-35    C    0.40455999    0.30580982    0.00580019    0.00200000
opls_148-36    C    0.91095997    0.14594017    0.02676017    -0.39970000
opls_148-37    C    0.93965987    0.91010985    0.00557037    -0.39460000
opls_148-38    C    0.14695006    0.94283980    0.00648966    -0.44590000
opls_148-39    C    0.74457977    0.01445008    0.96177016    -0.43130000
opls_148-40    C    0.59390986    0.31328014    0.99832085    -0.43140000
opls_148-41    C    0.01588987    0.23910014    0.01461970    -0.43130000
opls_148-42    C    0.31587029    0.09433982    0.01583059    -0.43070000
opls_148-43    C    0.23943010    0.74411972    0.97477966    -0.43150000
opls_148-44    C    0.09236979    0.59121018    0.01169949    -0.43130000
opls_148-45    C    0.41892995    0.18704010    0.01641951    -0.43280000
opls_148-46    C    0.39353996    0.42254999    0.01166071    -0.43110000
opls_148-47    C    0.18405018    0.39538979    0.99955041    -0.43130000
opls_700-48    C    0.97202002    0.95842011    0.49625961    0.00150000
opls_700-49    C    0.04378981    0.93004986    0.50325058    0.07890000
opls_700-50    C    0.07186991    0.97343970    0.50481051    0.00030000
opls_700-51    C    0.02889983    0.04514007    0.50817025    0.07910000
opls_700-52    C    0.95749005    0.07246007    0.51071987    0.00440000
opls_700-53    C    0.92854986    0.02940012    0.50173948    0.07960000
opls_142-54    C    0.94720011    0.90999974    0.47046040    0.06960000
opls_142-55    C    0.14541971    0.94751998    0.51353952    0.07670000
opls_142-56    C    0.90842025    0.14532983    0.53278013    0.07020000
opls_145-57    C    0.26088014    0.86570986    0.46507963    0.21440000
opls_145-58    C    0.30083973    0.79443017    0.46943050    -0.22810000
opls_700-59    C    0.29437000    0.90475019    0.47769986    0.08010000
opls_700-60    C    0.37139961    0.75879017    0.49121066    0.08900000
opls_145-61    C    0.36501995    0.86892002    0.49952024    -0.22290000
opls_145-62    C    0.40489995    0.79760009    0.50675971    0.19160000
opls_145-63    C    0.86682988    0.87293972    0.51284000    0.19160000
opls_145-64    C    0.79532964    0.90285019    0.50901055    -0.22810000
opls_700-65    C    0.90704005    0.80085997    0.51201981    0.08860000
opls_700-66    C    0.76064965    0.86647006    0.50161021    0.08840000
opls_145-67    C    0.87216998    0.76465989    0.51446026    -0.22270000
opls_145-68    C    0.80065012    0.79446991    0.50896027    0.20920000
opls_145-69    C    0.87168001    0.26205018    0.48567045    0.18330000
opls_145-70    C    0.90259997    0.30273007    0.48403008    -0.22050000
opls_700-71    C    0.79926973    0.29441005    0.48635993    0.08520000
opls_700-72    C    0.86693994    0.37333973    0.48764982    0.08950000
opls_145-73    C    0.76360991    0.36513009    0.48038019    -0.24100000
opls_145-74    C    0.79463008    0.40576985    0.48366955    0.20540000
opls_142-75    C    0.75910014    0.52126979    0.54673046    0.06920000
opls_700-76    C    0.62374010    0.73640992    0.50080008    0.07880000
opls_142-77    C    0.72023970    0.75689997    0.46387018    0.06970000
opls_142-78    C    0.52292971    0.71623014    0.47604082    0.07000000
opls_700-79    C    0.64050001    0.62110010    0.51455075    0.07960000
opls_700-80    C    0.71191988    0.59458979    0.52165950    0.00700000
opls_700-81    C    0.69535009    0.70880982    0.49546959    0.00460000
opls_700-82    C    0.73990964    0.63807010    0.50988963    0.07900000
opls_700-83    C    0.59642988    0.69223004    0.50324052    0.00320000
opls_148-84    C    0.08722979    0.85446978    0.52335015    -0.44570000
opls_148-85    C    0.06118998    0.08930988    0.50832969    -0.41360000
opls_148-86    C    0.85232010    0.06180000    0.48680952    -0.43380000
opls_148-87    C    0.25906982    0.98117994    0.46924951    -0.42610000
opls_148-88    C    0.40688982    0.68259002    0.50204975    -0.43050000
opls_148-89    C    0.98364981    0.76225015    0.52487992    -0.43130000
opls_148-90    C    0.68390988    0.90565981    0.50102990    -0.43140000
opls_148-91    C    0.75979969    0.25700016    0.47833044    -0.43130000
opls_148-92    C    0.90694006    0.41012003    0.48049941    -0.43090000
opls_148-93    C    0.57885015    0.81257979    0.50626989    -0.43320000
opls_148-94    C    0.60969978    0.57580012    0.53342076    -0.43000000
opls_148-95    C    0.81598979    0.60914981    0.50212013    -0.43560000
opls_144-96    H    0.83925001    0.02325012    0.11547953    0.07330000
opls_144-97    H    0.13442978    0.84200016    0.12704975    0.07910000
opls_144-98    H    0.48978004    0.32025999    0.95176993    0.09920000
opls_146-99    H    0.23288994    0.04207998    0.01599003    0.10800000
opls_146-100    H    0.72611982    0.23067001    0.95850091    0.10640000
opls_146-101    H    0.04157005    0.72408005    0.96617992    0.10740000
opls_144-102    H    0.01506969    0.13695006    0.89679022    0.07360000
opls_146-103    H    0.09882993    0.29109015    0.03123025    0.10790000
opls_146-104    H    0.29086002    0.61077001    0.02936005    0.10500000
opls_146-105    H    0.60958991    0.09744993    0.99527998    0.10790000
opls_144-106    H    0.19888014    0.49052986    0.88617090    0.06490000
opls_144-107    H    0.30649999    0.20374011    0.85917085    0.06280000
opls_144-108    H    0.16023973    0.98110003    0.58746969    0.07870000
opls_144-109    H    0.86283992    0.15664022    0.61617044    0.07410000
opls_144-110    H    0.51262014    0.68193991    0.38650989    0.06580000
opls_146-111    H    0.76600986    0.95823985    0.51577026    0.10680000
opls_146-112    H    0.27338988    0.76621992    0.45882985    0.10640000
opls_146-113    H    0.95818000    0.27610015    0.47592016    0.10500000
opls_144-114    H    0.98048994    0.86499983    0.38297059    0.07910000
opls_146-115    H    0.90121987    0.70943974    0.52530940    0.10500000
opls_146-116    H    0.70805993    0.39160014    0.46987003    0.10770000
opls_146-117    H    0.39223000    0.89732975    0.51224964    0.10770000
opls_144-118    H    0.80149998    0.50795986    0.64769084    0.06430000
opls_144-119    H    0.68735989    0.80007983    0.37200079    0.06580000
opls_702-120    H    0.97655003    0.85731009    0.03618009    0.13380000
opls_702-121    H    0.91861015    0.91100989    0.86195029    0.12420000
opls_702-122    H    0.89696011    0.92825999    0.10681946    0.12540000
opls_702-123    H    0.16231996    0.95377983    0.86808947    0.12470000
opls_702-124    H    0.17563987    0.88800006    0.02534962    0.11730000
opls_702-125    H    0.16298988    0.96708980    0.11532009    0.12600000
opls_702-126    H    0.86003022    0.16018996    0.07856975    0.14070000
opls_702-127    H    0.90355994    0.17171985    0.88877940    0.12760000
opls_702-128    H    0.93403984    0.16629996    0.12732984    0.12630000
opls_702-129    H    0.09915018    0.82772983    0.38376062    0.12510000
opls_702-130    H    0.06160972    0.83453994    0.61230077    0.13300000
opls_702-131    H    0.13633965    0.84090009    0.58911006    0.12700000
opls_702-132    H    0.83646988    0.02467000    0.45166939    0.12130000
opls_702-133    H    0.83212993    0.10221024    0.37966974    0.12480000
opls_702-134    H    0.82821002    0.08530997    0.62516950    0.12230000
opls_702-135    H    0.08744996    0.08338002    0.37091056    0.12440000
opls_702-136    H    0.09955976    0.07537006    0.62221051    0.11980000
opls_702-137    H    0.02309990    0.14287996    0.52412006    0.13380000
opls_702-138    H    0.43670979    0.16379009    0.87291004    0.13470000
opls_702-139    H    0.39044999    0.16471984    0.07944021    0.12680000
opls_702-140    H    0.46501997    0.17278020    0.10039013    0.12400000
opls_702-141    H    0.42262982    0.41644000    0.87941981    0.12840000
opls_702-142    H    0.42916990    0.40976984    0.13277955    0.12430000
opls_702-143    H    0.35460002    0.47581022    0.02864042    0.12600000
opls_702-144    H    0.16846008    0.35733988    0.01679010    0.12590000
opls_702-145    H    0.16150990    0.42352019    0.86638015    0.13090000
opls_702-146    H    0.16193987    0.43212993    0.11907053    0.12370000
opls_702-147    H    0.78796976    0.99388011    0.86198045    0.12230000
opls_702-148    H    0.70968011    0.99659987    0.91414051    0.12290000
opls_702-149    H    0.76463959    0.99143025    0.10264959    0.12990000
opls_702-150    H    0.55937977    0.33420009    0.12251072    0.12610000
opls_702-151    H    0.56337974    0.33741999    0.86927019    0.12370000
opls_702-152    H    0.63225992    0.32939995    0.01107035    0.12290000
opls_702-153    H    0.99483989    0.21888996    0.12025987    0.12410000
opls_702-154    H    0.99321982    0.23863016    0.87449008    0.12690000
opls_702-155    H    0.99794989    0.29248999    0.05251054    0.12190000
opls_702-156    H    0.33913991    0.09453984    0.87781966    0.12410000
opls_702-157    H    0.33372994    0.04110018    0.05097934    0.12290000
opls_702-158    H    0.33596998    0.11529995    0.12488940    0.12060000
opls_702-159    H    0.21773964    0.78407020    0.86610005    0.12480000
opls_702-160    H    0.29255003    0.70861986    0.93473995    0.12000000
opls_702-161    H    0.24068957    0.76858018    0.11128093    0.13100000
opls_702-162    H    0.11093011    0.55262992    0.12434069    0.12470000
opls_702-163    H    0.09469023    0.56504989    0.87512928    0.12700000
opls_702-164    H    0.03840991    0.62761992    0.03967055    0.11980000
opls_702-165    H    0.23616014    0.00545971    0.60811079    0.12670000
opls_702-166    H    0.21794988    0.00227985    0.36201062    0.12430000
opls_702-167    H    0.29593011    0.99747992    0.43318002    0.12290000
opls_702-168    H    0.43395010    0.65773975    0.36813974    0.12760000
opls_702-169    H    0.36952990    0.66601989    0.52743958    0.12380000
opls_702-170    H    0.44478976    0.66317994    0.61836957    0.12510000
opls_702-171    H    0.00839001    0.75969974    0.38694943    0.12690000
opls_702-172    H    0.00128999    0.70972974    0.56798059    0.12150000
opls_702-173    H    0.00288003    0.78504990    0.63091079    0.12370000
opls_702-174    H    0.66216992    0.88576992    0.60543046    0.12440000
opls_702-175    H    0.66243020    0.90429980    0.35973967    0.12490000
opls_702-176    H    0.66572993    0.95923992    0.53699022    0.12190000
opls_702-177    H    0.75926996    0.23439991    0.61657981    0.12420000
opls_702-178    H    0.78110970    0.21534009    0.37170058    0.12510000
opls_702-179    H    0.70653982    0.29182983    0.43889977    0.11980000
opls_702-180    H    0.88529006    0.45162977    0.37649960    0.12470000
opls_702-181    H    0.95984976    0.37457009    0.43858951    0.12290000
opls_702-182    H    0.90875007    0.43227013    0.62055003    0.12420000
opls_702-183    H    0.52832984    0.82685000    0.56147082    0.12320000
opls_702-184    H    0.57242989    0.83476000    0.36247027    0.11250000
opls_702-185    H    0.60151986    0.83567007    0.59875981    0.12570000
opls_702-186    H    0.64339006    0.52984990    0.61300030    0.12180000
opls_702-187    H    0.60195969    0.55821005    0.39215064    0.12260000
opls_702-188    H    0.56036025    0.60237973    0.60715989    0.12510000
opls_702-189    H    0.82992979    0.62779011    0.37497989    0.12410000
opls_702-190    H    0.84365986    0.55370021    0.49479017    0.12900000
opls_702-191    H    0.83414983    0.62628021    0.62560042    0.12540000
opls_750-192    N    0.80959988    0.10621995    0.93948008    -0.27950000
opls_750-193    N    0.08255993    0.80791015    0.95083053    -0.28070000
opls_750-194    N    0.10911996    0.08165023    0.03253019    -0.27880000
opls_750-195    N    0.24945983    0.52727005    0.05698063    -0.27980000
opls_750-196    N    0.22450995    0.25001984    0.04867966    -0.26260000
opls_750-197    N    0.52621006    0.21909985    0.01652006    -0.28960000
opls_750-198    N    0.19092982    0.88946017    0.44493984    -0.28970000
opls_750-199    N    0.91766985    0.19271002    0.46587971    -0.25620000
opls_750-200    N    0.89031992    0.91910978    0.53807040    -0.27990000
opls_750-201    N    0.75025984    0.47548998    0.46234042    -0.27700000
opls_750-202    N    0.77671993    0.74885988    0.53267958    -0.27320000
opls_750-203    N    0.47433998    0.77315989    0.54001959    -0.29360000
