#======================================================================
# Crystal Data Generated By AuToFF
#----------------------------------------------------------------------

data_AuToFF_phase_1

_cell_length_a                         44.8681
_cell_length_b                         44.9323
_cell_length_c                         7.1923
_cell_angle_alpha                      90.10
_cell_angle_beta                       90.00
_cell_angle_gamma                      60.06
_symmetry_space_group_name_H-M_alt     'P 1'
_symmetry_space_group_IT_number        1

loop_
_space_group_symop_operation_xyz
   'x, y, z'

loop_
   _atom_site_label
   _atom_site_type_symbol
   _atom_site_fract_x
   _atom_site_fract_y
   _atom_site_fract_z
   _atom_site_charge
opls_145-0    C    0.26502997    0.90972998    0.91323904    -0.12290000
opls_700-1    C    0.29971002    0.89146990    0.96842869    0.06860000
opls_145-2    C    0.31584015    0.90994004    0.02539942    -0.12290000
opls_700-3    C    0.29819010    0.94612998    0.02331942    0.07240000
opls_145-4    C    0.26316010    0.96369985    0.97328945    -0.12440000
opls_700-5    C    0.24616000    0.94588987    0.91795937    0.07210000
opls_700-6    C    0.31693002    0.96484999    0.06309951    0.07060000
opls_145-7    C    0.30017999    0.99922994    0.12638951    -0.13060000
opls_145-8    C    0.35264001    0.94892007    0.02853055    -0.12650000
opls_145-9    C    0.31825994    0.01669999    0.15121053    -0.13410000
opls_145-10    C    0.37094012    0.96600984    0.05766036    -0.12270000
opls_700-11    C    0.35413000    0.00046989    0.11949045    0.13350000
opls_700-12    C    0.31915003    0.85341000    0.95959979    0.07200000
opls_145-13    C    0.30324002    0.83389008    0.00087038    -0.12670000
opls_145-14    C    0.35416998    0.83562986    0.90785967    -0.12650000
opls_145-15    C    0.32125007    0.79817001    0.98825965    -0.12620000
opls_145-16    C    0.37233006    0.79991998    0.89706894    -0.12360000
opls_700-17    C    0.35617008    0.78039986    0.93370957    0.13350000
opls_700-18    C    0.20940994    0.96440001    0.86318961    0.06600000
opls_145-19    C    0.19295014    0.99861989    0.79832015    -0.12660000
opls_145-20    C    0.18935008    0.94826987    0.87613959    -0.13990000
opls_145-21    C    0.15821987    0.01608013    0.75112933    -0.12640000
opls_145-22    C    0.15473011    0.96555000    0.82805894    -0.12660000
opls_700-23    C    0.13812005    0.99998002    0.76535985    0.13180000
opls_142-24    C    0.10143009    0.01610992    0.72510007    -0.09420000
opls_700-25    C    0.07851982    0.04869011    0.66610913    -0.00480000
opls_700-26    C    0.04139993    0.06053996    0.64704983    0.07200000
opls_423-27    C    0.08820000    0.07419010    0.62437972    0.25210000
opls_145-28    C    0.02930993    0.03797999    0.59803901    -0.12650000
opls_145-29    C    0.01683010    0.09521995    0.68245997    -0.12650000
opls_145-30    C    0.99419988    0.04945003    0.58869011    -0.12670000
opls_145-31    C    0.98175001    0.10651008    0.67546915    -0.12670000
opls_700-32    C    0.96955995    0.08388990    0.62957973    0.07390000
opls_700-33    C    0.93225006    0.09585999    0.62979941    0.07390000
opls_145-34    C    0.91984008    0.07356992    0.67861974    -0.12670000
opls_145-35    C    0.90775994    0.13022999    0.58718989    -0.12650000
opls_145-36    C    0.88470008    0.08535993    0.69172962    -0.12650000
opls_145-37    C    0.87260992    0.14218006    0.60181945    -0.12650000
opls_700-38    C    0.86033008    0.12017994    0.65880964    0.07390000
opls_700-39    C    0.82331006    0.13282989    0.69060897    -0.00430000
opls_142-40    C    0.80146989    0.16563011    0.75188987    -0.09600000
opls_423-41    C    0.81262995    0.10777008    0.65767926    0.25210000
opls_700-42    C    0.76515992    0.18243990    0.80282914    0.13260000
opls_145-43    C    0.74909995    0.21727999    0.85899901    -0.11800000
opls_145-44    C    0.74484992    0.16646998    0.80400957    -0.12230000
opls_145-45    C    0.71470993    0.23522003    0.91255914    -0.12620000
opls_145-46    C    0.71040004    0.18456993    0.85660895    -0.12650000
opls_700-47    C    0.69427990    0.21938011    0.91247989    0.07170000
opls_700-48    C    0.65768003    0.23829999    0.97091886    0.07200000
opls_145-49    C    0.64062016    0.22041991    0.02312059    -0.12290000
opls_145-50    C    0.63884983    0.27451008    0.97392903    -0.12430000
opls_700-51    C    0.60596987    0.23769009    0.07993004    0.07000000
opls_700-52    C    0.60431993    0.29251999    0.03297976    0.07240000
opls_145-53    C    0.58828997    0.27383008    0.08777038    -0.12290000
opls_700-54    C    0.58804013    0.21827994    0.12147035    0.07310000
opls_700-55    C    0.58461009    0.33061004    0.02974018    0.07330000
opls_145-56    C    0.55231993    0.23331996    0.09105028    -0.12650000
opls_145-57    C    0.60603991    0.18374005    0.18087980    -0.12650000
opls_145-58    C    0.60047996    0.35037993    0.06532968    -0.12670000
opls_145-59    C    0.54925005    0.34821996    0.98514938    -0.12640000
opls_145-60    C    0.53529991    0.21486998    0.11654981    -0.13530000
opls_145-61    C    0.58915004    0.16513002    0.20556040    -0.13070000
opls_145-62    C    0.58236997    0.38603009    0.04907060    -0.12650000
opls_145-63    C    0.53090987    0.38387006    0.97280977    -0.12660000
opls_700-64    C    0.55337985    0.18022009    0.17438952    0.13260000
opls_700-65    C    0.54721991    0.40356993    0.99908930    0.13350000
opls_142-66    C    0.37144000    0.02047004    0.14452003    -0.09600000
opls_700-67    C    0.40564001    0.00895999    0.17525990    -0.00510000
opls_700-68    C    0.41993000    0.03224991    0.19084047    0.07230000
opls_423-69    C    0.43051999    0.97288991    0.19768947    0.25360000
opls_145-70    C    0.39970005    0.06680008    0.24780981    -0.12650000
opls_145-71    C    0.45482002    0.02013991    0.14698935    -0.12670000
opls_145-72    C    0.41357990    0.08844008    0.25643015    -0.12670000
opls_145-73    C    0.46865006    0.04183007    0.15580017    -0.12670000
opls_700-74    C    0.44826997    0.07655000    0.20932971    0.07200000
opls_700-75    C    0.46264005    0.09989993    0.21509978    0.07200000
opls_145-76    C    0.44217015    0.13485991    0.16711923    -0.12650000
opls_145-77    C    0.49704008    0.08807001    0.26809959    -0.12670000
opls_145-78    C    0.45547003    0.15699010    0.17203005    -0.12650000
opls_145-79    C    0.51052007    0.11008999    0.27157971    -0.12650000
opls_700-80    C    0.49001015    0.14501990    0.22285948    0.07340000
opls_700-81    C    0.50347006    0.16908990    0.22087958    -0.00350000
opls_142-82    C    0.53746000    0.15882991    0.19297053    -0.09600000
opls_423-83    C    0.47784015    0.20471989    0.25145955    0.24860000
opls_142-84    C    0.52625007    0.44077000    0.97580882    -0.09600000
opls_700-85    C    0.53625001    0.46427008    0.93479963    -0.00510000
opls_700-86    C    0.51119005    0.50135002    0.91443893    0.07390000
opls_423-87    C    0.57185990    0.45459008    0.90567955    0.25200000
opls_145-88    C    0.47695986    0.51324011    0.85752938    -0.12670000
opls_145-89    C    0.52114997    0.52598993    0.95219881    -0.12650000
opls_145-90    C    0.45351996    0.54825005    0.84275940    -0.12620000
opls_145-91    C    0.49762997    0.56100005    0.93791963    -0.12670000
opls_700-92    C    0.46324996    0.57295000    0.88377971    0.07430000
opls_700-93    C    0.43822002    0.61022008    0.87322953    0.07430000
opls_145-94    C    0.40333985    0.62341005    0.92123927    -0.12650000
opls_145-95    C    0.44865998    0.63379001    0.81850009    -0.12670000
opls_145-96    C    0.38016996    0.65862987    0.92027991    -0.12670000
opls_145-97    C    0.42561002    0.66902001    0.81867945    -0.12650000
opls_700-98    C    0.39102991    0.68222995    0.87333937    0.07200000
opls_700-99    C    0.36656006    0.71959995    0.88406891    -0.00350000
opls_142-100    C    0.37700005    0.74298991    0.91848910    -0.09600000
opls_423-101    C    0.33086993    0.72976008    0.85324980    0.25210000
opls_145-102    C    0.26091020    0.90199989    0.40929940    -0.13510000
opls_700-103    C    0.29575002    0.88380007    0.46217964    0.06850000
opls_145-104    C    0.31205001    0.90237002    0.51412971    -0.14560000
opls_700-105    C    0.29451011    0.93850992    0.50870029    0.07260000
opls_145-106    C    0.25950007    0.95603004    0.45885942    -0.14650000
opls_700-107    C    0.24215000    0.93820992    0.41075930    0.07230000
opls_700-108    C    0.31323014    0.95723984    0.54820926    0.07310000
opls_145-109    C    0.29644007    0.99136991    0.61496964    -0.12670000
opls_145-110    C    0.34884010    0.94153994    0.51132949    -0.12620000
opls_145-111    C    0.31447988    0.00879008    0.64303998    -0.12540000
opls_145-112    C    0.36703989    0.95873008    0.54101962    -0.12650000
opls_700-113    C    0.35024007    0.99281993    0.60871016    0.13350000
opls_700-114    C    0.31546999    0.84572004    0.45790979    0.07250000
opls_145-115    C    0.29991004    0.82586984    0.49848935    -0.12670000
opls_145-116    C    0.35067009    0.82821985    0.40956914    -0.12650000
opls_145-117    C    0.31828997    0.79014995    0.48567007    -0.12670000
opls_145-118    C    0.36929001    0.79252992    0.40064986    -0.12660000
opls_700-119    C    0.35338004    0.77267993    0.43424973    0.13350000
opls_700-120    C    0.20509004    0.95701997    0.36199041    0.06890000
opls_145-121    C    0.18863010    0.99134983    0.29861977    -0.12670000
opls_145-122    C    0.18464006    0.94136984    0.37969965    -0.12650000
opls_145-123    C    0.15378010    0.00912991    0.25440020    -0.12230000
opls_145-124    C    0.14986996    0.95896998    0.33436916    -0.13870000
opls_700-125    C    0.13345007    0.99329999    0.27001970    0.13260000
opls_142-126    C    0.09686006    0.00960003    0.22667050    -0.09420000
opls_700-127    C    0.07433011    0.04227993    0.16714982    -0.00500000
opls_700-128    C    0.03725988    0.05440009    0.14228014    0.07240000
opls_423-129    C    0.08416006    0.06789009    0.13223049    0.25210000
opls_145-130    C    0.02504994    0.03215990    0.08855038    -0.12660000
opls_145-131    C    0.01283999    0.08906011    0.17920996    -0.12650000
opls_145-132    C    0.98989012    0.04372997    0.08087966    -0.12660000
opls_145-133    C    0.97775014    0.10047993    0.17287957    -0.12650000
opls_700-134    C    0.96544002    0.07795994    0.12706940    0.07430000
opls_700-135    C    0.92814003    0.08999006    0.13327049    0.07200000
opls_145-136    C    0.91582993    0.06776997    0.18512046    -0.12670000
opls_145-137    C    0.90367013    0.12446989    0.09312055    -0.12650000
opls_145-138    C    0.88069007    0.07954988    0.19870027    -0.12650000
opls_145-139    C    0.86856001    0.13644004    0.10925032    -0.12650000
opls_700-140    C    0.85633998    0.11428991    0.16412019    0.07170000
opls_700-141    C    0.81922007    0.12677002    0.19025929    -0.00330000
opls_142-142    C    0.79717999    0.15944002    0.25219923    -0.09410000
opls_423-143    C    0.80861987    0.10189011    0.15013021    0.25210000
opls_700-144    C    0.76080001    0.17593992    0.30068031    0.13150000
opls_145-145    C    0.74452991    0.21070010    0.35812933    -0.12650000
opls_145-146    C    0.74083002    0.15960006    0.30089999    -0.12650000
opls_145-147    C    0.71034002    0.22810995    0.41484979    -0.12650000
opls_145-148    C    0.70653007    0.17719001    0.35639970    -0.12670000
opls_700-149    C    0.69040991    0.21175006    0.41644038    0.06600000
opls_700-150    C    0.65417004    0.23014989    0.48041027    0.07260000
opls_145-151    C    0.63773990    0.21203995    0.53944015    -0.12560000
opls_145-152    C    0.63504000    0.26631995    0.48010022    -0.12290000
opls_700-153    C    0.60304989    0.22920007    0.59592008    0.07260000
opls_700-154    C    0.60064997    0.28421012    0.54102935    0.07070000
opls_145-155    C    0.58502001    0.26539996    0.60045966    -0.13510000
opls_700-156    C    0.58524990    0.20964001    0.63695986    0.07310000
opls_700-157    C    0.58098004    0.32228005    0.53278024    0.07290000
opls_145-158    C    0.54972997    0.22440997    0.60070993    -0.13530000
opls_145-159    C    0.60298984    0.17531011    0.70021926    -0.12660000
opls_145-160    C    0.59686997    0.34199999    0.56942921    -0.12670000
opls_145-161    C    0.54587009    0.33988991    0.48322996    -0.12650000
opls_145-162    C    0.53263997    0.20600992    0.62514025    -0.12440000
opls_145-163    C    0.58610000    0.15660011    0.72131964    -0.11800000
opls_145-164    C    0.57887993    0.37765007    0.55292960    -0.12620000
opls_145-165    C    0.52775000    0.37552997    0.46809987    -0.12360000
opls_700-166    C    0.55050007    0.17146991    0.68490981    0.13350000
opls_700-167    C    0.54395996    0.39522008    0.49846016    0.13360000
opls_142-168    C    0.36751003    0.01279006    0.63653996    -0.09600000
opls_700-169    C    0.40166989    0.00109011    0.66905951    -0.00370000
opls_700-170    C    0.41603994    0.02428005    0.68651014    0.07270000
opls_423-171    C    0.42633993    0.96494999    0.69101913    0.25160000
opls_145-172    C    0.39580997    0.05882000    0.74361990    -0.12670000
opls_145-173    C    0.45095996    0.01208995    0.64341955    -0.12670000
opls_145-174    C    0.40979988    0.08034995    0.75394902    -0.12670000
opls_145-175    C    0.46479993    0.03377006    0.65214000    -0.12660000
opls_700-176    C    0.44449005    0.06844005    0.70671928    0.07200000
opls_700-177    C    0.45897002    0.09169006    0.71383940    0.07390000
opls_145-178    C    0.43840988    0.12690999    0.67143010    -0.12650000
opls_145-179    C    0.49361999    0.07952012    0.76278904    -0.12620000
opls_145-180    C    0.45191001    0.14887988    0.67692904    -0.12650000
opls_145-181    C    0.50720000    0.10143989    0.76817954    -0.12660000
opls_700-182    C    0.48667000    0.13659013    0.72418938    0.07170000
opls_700-183    C    0.50033003    0.16050990    0.72429921    -0.00490000
opls_142-184    C    0.53445995    0.15012995    0.70042921    -0.09600000
opls_423-185    C    0.47478004    0.19619002    0.75432998    0.24860000
opls_142-186    C    0.52324986    0.43246009    0.47487935    -0.09610000
opls_700-187    C    0.53378994    0.45565002    0.43616011    -0.00460000
opls_700-188    C    0.50943992    0.49281005    0.41228037    0.07380000
opls_423-189    C    0.56968004    0.44535006    0.41192026    0.24870000
opls_145-190    C    0.47502995    0.50547011    0.35604933    -0.12660000
opls_145-191    C    0.52032998    0.51687988    0.44614997    -0.12620000
opls_145-192    C    0.45226005    0.54064008    0.34135025    -0.12670000
opls_145-193    C    0.49742011    0.55204987    0.43285935    -0.12670000
opls_700-194    C    0.46271001    0.56479005    0.38275014    0.07390000
opls_700-195    C    0.43788006    0.60215987    0.37725954    0.07250000
opls_145-196    C    0.40300009    0.61510999    0.42464917    -0.12660000
opls_145-197    C    0.44818997    0.62606004    0.32720038    -0.12660000
opls_145-198    C    0.37956002    0.65025990    0.42353965    -0.12620000
opls_145-199    C    0.42483996    0.66122998    0.32679995    -0.12660000
opls_700-200    C    0.39009011    0.67411997    0.37683964    0.07390000
opls_700-201    C    0.36505003    0.71140992    0.38296982    -0.00330000
opls_142-202    C    0.37473009    0.73530989    0.41931012    -0.09590000
opls_423-203    C    0.32969003    0.72095008    0.34604000    0.25160000
opls_146-204    H    0.25294007    0.89535991    0.85915890    0.06570000
opls_146-205    H    0.34256993    0.89578006    0.07537933    0.08200000
opls_146-206    H    0.24886993    0.99196005    0.97553908    0.06570000
opls_146-207    H    0.27248000    0.01278998    0.15857953    0.10790000
opls_146-208    H    0.36669011    0.92260988    0.97264015    0.07580000
opls_146-209    H    0.30432002    0.04352998    0.20016990    0.09940000
opls_146-210    H    0.39854007    0.95248006    0.02533963    0.09160000
opls_146-211    H    0.27634016    0.84672994    0.04872996    0.07900000
opls_146-212    H    0.36753005    0.84979990    0.87236888    0.06340000
opls_146-213    H    0.30807991    0.78402000    0.02716937    0.06790000
opls_146-214    H    0.39958014    0.78684986    0.85501975    0.08160000
opls_146-215    H    0.20755994    0.01216998    0.78210000    0.08230000
opls_146-216    H    0.20057996    0.92188988    0.92922004    0.08300000
opls_146-217    H    0.14675995    0.04270013    0.70248002    0.10000000
opls_146-218    H    0.13991008    0.95214004    0.84128977    0.09940000
opls_146-219    H    0.04754999    0.01098999    0.56274983    0.10800000
opls_146-220    H    0.02532993    0.11349995    0.72139889    0.09780000
opls_146-221    H    0.98596000    0.03113999    0.54565931    0.08050000
opls_146-222    H    0.96353991    0.13349008    0.71083897    0.07900000
opls_146-223    H    0.93792005    0.04657000    0.71336946    0.06570000
opls_146-224    H    0.91615003    0.14817993    0.53980026    0.08070000
opls_146-225    H    0.87605991    0.06743007    0.73513999    0.10630000
opls_146-226    H    0.85447004    0.16912997    0.56586984    0.10460000
opls_144-227    H    0.81306989    0.18210004    0.77046949    0.12760000
opls_144-228    H    0.09049000    0.99934006    0.75318987    0.13460000
opls_146-229    H    0.76409994    0.23060996    0.86122918    0.10030000
opls_146-230    H    0.75589987    0.13944012    0.76309910    0.09160000
opls_146-231    H    0.70393001    0.26204004    0.95820942    0.07580000
opls_146-232    H    0.69576993    0.17091013    0.85149931    0.06570000
opls_146-233    H    0.65456009    0.19220006    0.01819031    0.06950000
opls_146-234    H    0.65085995    0.28917995    0.92350003    0.07130000
opls_146-235    H    0.56176998    0.28769992    0.14134024    0.07130000
opls_146-236    H    0.53734996    0.25986989    0.03978983    0.08050000
opls_146-237    H    0.63382989    0.17090003    0.20925046    0.08200000
opls_146-238    H    0.62762012    0.33778994    0.10847032    0.07900000
opls_146-239    H    0.53577985    0.33392004    0.95512973    0.08050000
opls_146-240    H    0.50775998    0.22738003    0.08351026    0.06400000
opls_146-241    H    0.60400002    0.13821008    0.25158051    0.10860000
opls_146-242    H    0.59582006    0.40026992    0.07910971    0.09160000
opls_146-243    H    0.50345000    0.39675994    0.93562968    0.10890000
opls_146-244    H    0.37271998    0.07704005    0.29014959    0.10890000
opls_146-245    H    0.47132009    0.99342993    0.10092057    0.08300000
opls_146-246    H    0.39706988    0.11500007    0.30520043    0.07900000
opls_146-247    H    0.49572007    0.03158006    0.11545975    0.08230000
opls_146-248    H    0.41543996    0.14498006    0.12077933    0.08080000
opls_146-249    H    0.51359007    0.06123990    0.31187980    0.08200000
opls_146-250    H    0.43894997    0.18394988    0.13090963    0.10630000
opls_146-251    H    0.53727999    0.09990010    0.31754003    0.07900000
opls_144-252    H    0.55547997    0.13095012    0.18056975    0.13490000
opls_146-253    H    0.46840995    0.49493992    0.81951924    0.07900000
opls_146-254    H    0.54756006    0.51772991    0.99762941    0.08300000
opls_146-255    H    0.42733002    0.55630997    0.79380003    0.08200000
opls_146-256    H    0.50621012    0.57934990    0.97408892    0.07130000
opls_146-257    H    0.39410002    0.60599997    0.96590933    0.08200000
opls_146-258    H    0.47521008    0.62459002    0.77160960    0.07130000
opls_146-259    H    0.35335999    0.66798990    0.96249873    0.08920000
opls_146-260    H    0.43478998    0.68637999    0.77191965    0.10470000
opls_144-261    H    0.40494992    0.73277001    0.93307973    0.13340000
opls_144-262    H    0.49831995    0.45080998    0.98960971    0.13460000
opls_144-263    H    0.35425993    0.04856005    0.13743050    0.13360000
opls_146-264    H    0.24849001    0.88757007    0.36093928    0.07130000
opls_146-265    H    0.33880006    0.88835991    0.56376898    0.07580000
opls_146-266    H    0.24545995    0.98428000    0.45709920    0.08300000
opls_146-267    H    0.26878008    0.00470990    0.64798972    0.10470000
opls_146-268    H    0.36277001    0.91548984    0.45181020    0.08050000
opls_146-269    H    0.30060996    0.03531993    0.69636931    0.10890000
opls_146-270    H    0.39444017    0.94573984    0.50376028    0.07550000
opls_146-271    H    0.27285998    0.83843006    0.54371000    0.10460000
opls_146-272    H    0.36382004    0.84261006    0.37427996    0.08050000
opls_146-273    H    0.30513011    0.77580989    0.52046010    0.06380000
opls_146-274    H    0.39663991    0.77971004    0.36085030    0.10870000
opls_146-275    H    0.20336014    0.00469992    0.27983994    0.07590000
opls_146-276    H    0.19574005    0.91502008    0.43326951    0.06340000
opls_146-277    H    0.14248001    0.03569991    0.20527954    0.08390000
opls_146-278    H    0.13482016    0.94584988    0.35073947    0.07310000
opls_146-279    H    0.04320999    0.00535006    0.04945991    0.10790000
opls_146-280    H    0.02144984    0.10716012    0.22031926    0.07590000
opls_146-281    H    0.98145998    0.02564989    0.03605945    0.10470000
opls_146-282    H    0.95964014    0.12733992    0.21077014    0.06570000
opls_146-283    H    0.93396991    0.04078998    0.22030953    0.07900000
opls_146-284    H    0.91205002    0.14238003    0.04508995    0.06350000
opls_146-285    H    0.87200005    0.06168007    0.24265985    0.08300000
opls_146-286    H    0.85042008    0.16343998    0.07453954    0.08050000
opls_144-287    H    0.80870008    0.17585000    0.27594966    0.13340000
opls_144-288    H    0.08571993    0.99287988    0.25035003    0.12390000
opls_146-289    H    0.75926992    0.22430009    0.35989928    0.09940000
opls_146-290    H    0.75211004    0.13264009    0.25800962    0.07260000
opls_146-291    H    0.69937998    0.25481991    0.46289986    0.06570000
opls_146-292    H    0.69206002    0.16334997    0.35144022    0.08070000
opls_146-293    H    0.65211004    0.18379010    0.53876026    0.08300000
opls_146-294    H    0.64660995    0.28102994    0.42432939    0.08920000
opls_146-295    H    0.55851991    0.27920009    0.65445915    0.07900000
opls_146-296    H    0.53499989    0.25071001    0.54604027    0.08300000
opls_146-297    H    0.63051998    0.16280003    0.73522897    0.08230000
opls_146-298    H    0.62382993    0.32937992    0.61587895    0.08080000
opls_146-299    H    0.53244995    0.32557009    0.45219951    0.08230000
opls_146-300    H    0.50522992    0.21850001    0.58957022    0.08390000
opls_146-301    H    0.60076001    0.12983998    0.77024008    0.10030000
opls_146-302    H    0.59213006    0.39191988    0.58756947    0.06400000
opls_146-303    H    0.50049001    0.38839004    0.42676950    0.10890000
opls_146-304    H    0.36878996    0.06911002    0.78517969    0.10460000
opls_146-305    H    0.46742997    0.98535005    0.59769003    0.12360000
opls_146-306    H    0.39334991    0.10685000    0.80381909    0.08070000
opls_146-307    H    0.49185006    0.02350989    0.61139915    0.08070000
opls_146-308    H    0.41141986    0.13741000    0.62923909    0.06340000
opls_146-309    H    0.51036988    0.05245011    0.80172935    0.06340000
opls_146-310    H    0.43522002    0.17604989    0.64030928    0.11770000
opls_146-311    H    0.53417000    0.09090011    0.81117002    0.08230000
opls_144-312    H    0.55244986    0.12223002    0.68911014    0.13460000
opls_146-313    H    0.46572995    0.48769011    0.31972014    0.08240000
opls_146-314    H    0.54700994    0.50800005    0.48863992    0.10630000
opls_146-315    H    0.42587011    0.54927988    0.29366029    0.08050000
opls_146-316    H    0.50676005    0.56986989    0.46703901    0.06340000
opls_146-317    H    0.39388992    0.59751003    0.46772029    0.08050000
opls_146-318    H    0.47485000    0.61718998    0.28347022    0.07900000
opls_146-319    H    0.35270998    0.65935005    0.46383975    0.08920000
opls_146-320    H    0.43392011    0.67879991    0.28238989    0.10790000
opls_144-321    H    0.40252999    0.72553990    0.43785915    0.13340000
opls_144-322    H    0.49522993    0.44269001    0.48426023    0.13500000
opls_144-323    H    0.35034993    0.04089007    0.63078936    0.12390000
opls_753-324    N    0.09418996    0.09543998    0.58437994    -0.32410000
opls_753-325    N    0.80596003    0.08679998    0.62192987    -0.32410000
opls_753-326    N    0.45126012    0.94486001    0.22533991    -0.32400000
opls_753-327    N    0.45673003    0.23232010    0.28604937    -0.32400000
opls_753-328    N    0.59954989    0.44830996    0.87449894    -0.32410000
opls_753-329    N    0.30313995    0.73647992    0.81951924    -0.32410000
opls_753-330    N    0.09001003    0.08942007    0.09676056    -0.32410000
opls_753-331    N    0.80186997    0.08117990    0.10953952    -0.32400000
opls_753-332    N    0.44668009    0.93677989    0.71873909    -0.32400000
opls_753-333    N    0.45364010    0.22377989    0.78873905    -0.32400000
opls_753-334    N    0.59765992    0.43839002    0.38321035    -0.32080000
opls_753-335    N    0.30225999    0.72722987    0.30791028    -0.32410000
