#======================================================================
# Crystal Data Generated By AuToFF
#----------------------------------------------------------------------

data_AuToFF_phase_1

_cell_length_a                         38.0400
_cell_length_b                         38.0400
_cell_length_c                         6.9400
_cell_angle_alpha                      90.00
_cell_angle_beta                       90.00
_cell_angle_gamma                      120.00
_symmetry_space_group_name_H-M_alt     'P 1'
_symmetry_space_group_IT_number        1

loop_
_space_group_symop_operation_xyz
   'x, y, z'

loop_
   _atom_site_label
   _atom_site_type_symbol
   _atom_site_fract_x
   _atom_site_fract_y
   _atom_site_fract_z
   _atom_site_charge
opls_700-0    C    0.62328001    0.31199009    0.97134006    0.06870000
opls_145-1    C    0.64514007    0.29096993    0.96284006    -0.09720000
opls_700-2    C    0.71016007    0.41952992    0.00850000    0.06870000
opls_145-3    C    0.69974008    0.25267996    0.91196974    -0.13790000
opls_145-4    C    0.72500999    0.23664984    0.92358069    -0.11950000
opls_700-5    C    0.76071990    0.25573002    0.03454035    0.06070000
opls_145-6    C    0.76872019    0.29019012    0.14345965    -0.11680000
opls_145-7    C    0.74396986    0.30674993    0.13305043    -0.13360000
opls_700-8    C    0.79182992    0.24214984    0.02315994    0.01370000
opls_423-9    C    0.83217996    0.27691986    0.02415994    0.23210000
opls_142-10    C    0.78125995    0.20185007    0.01961960    -0.19720000
opls_145-11    C    0.80664988    0.18656000    0.97934006    0.01360000
opls_166-12    C    0.79277982    0.14585985    0.99562968    0.24320000
opls_145-13    C    0.81997998    0.12850990    0.94548991    -0.20000000
opls_181-14    C    0.72927011    0.09316010    0.90398991    -0.19100000
opls_700-15    C    0.04356003    0.02279987    0.94765994    0.06400000
opls_145-16    C    0.01995996    0.04195988    0.93980980    -0.14250000
opls_700-17    C    0.95829987    0.91248986    0.98022046    0.06720000
opls_145-18    C    0.97107008    0.08467014    0.96485014    -0.13790000
opls_145-19    C    0.94834000    0.10361008    0.98461960    -0.13150000
opls_700-20    C    0.90647008    0.08147012    0.02724063    0.06540000
opls_145-21    C    0.88998994    0.03937000    0.05174928    -0.11940000
opls_145-22    C    0.91227980    0.02030986    0.02891931    -0.13180000
opls_700-23    C    0.87897000    0.10050993    0.03858934    -0.00010000
opls_423-24    C    0.83806986    0.07350986    0.10447983    0.23230000
opls_142-25    C    0.89118990    0.14065004    0.99736023    -0.07240000
opls_700-26    C    0.86541002    0.15638996    0.97196974    0.00530000
opls_166-27    C    0.87901012    0.19722004    0.95412968    0.26420000
opls_145-28    C    0.84955998    0.21219988    0.90251009    -0.20200000
opls_181-29    C    0.92507993    0.25159993    0.13937032    -0.18760000
opls_700-30    C    0.68800993    0.31129011    0.97134006    0.06870000
opls_145-31    C    0.70903008    0.35417005    0.96284006    -0.09720000
opls_700-32    C    0.58047008    0.29062996    0.00850000    0.06870000
opls_145-33    C    0.74731995    0.44705999    0.91196974    -0.13790000
opls_145-34    C    0.76335006    0.48835996    0.92358069    -0.11950000
opls_700-35    C    0.74426992    0.50498989    0.03454035    0.06070000
opls_145-36    C    0.70980987    0.47852983    0.14345965    -0.11680000
opls_145-37    C    0.69325004    0.43721984    0.13305043    -0.13380000
opls_700-38    C    0.75784994    0.54967989    0.02315994    0.01370000
opls_423-39    C    0.72308007    0.55526003    0.02415994    0.23220000
opls_142-40    C    0.79814995    0.57940979    0.01961960    -0.19720000
opls_145-41    C    0.81344006    0.62008991    0.97934006    0.01360000
opls_166-42    C    0.85414007    0.64691999    0.99562968    0.24330000
opls_145-43    C    0.87149002    0.69147006    0.94548991    -0.20000000
opls_181-44    C    0.90683997    0.63611001    0.90398991    -0.19100000
opls_700-45    C    0.97719994    0.02076002    0.94765994    0.06410000
opls_145-46    C    0.95803995    0.97799998    0.93980980    -0.14250000
opls_700-47    C    0.08750994    0.04581010    0.98022046    0.06720000
opls_145-48    C    0.91533004    0.88639982    0.96485014    -0.13790000
opls_145-49    C    0.89638989    0.84472983    0.98461960    -0.13160000
opls_700-50    C    0.91853000    0.82500005    0.02724063    0.06540000
opls_145-51    C    0.96062987    0.85061989    0.05174928    -0.11940000
opls_145-52    C    0.97969002    0.89196995    0.02891931    -0.13180000
opls_700-53    C    0.89948995    0.77845992    0.03858934    -0.00010000
opls_423-54    C    0.92648994    0.76455980    0.10447983    0.23220000
opls_142-55    C    0.85934981    0.75053979    0.99736023    -0.07240000
opls_700-56    C    0.84360992    0.70902005    0.97196974    0.00530000
opls_166-57    C    0.80278006    0.68178988    0.95412968    0.26420000
opls_145-58    C    0.78779988    0.63736002    0.90251009    -0.20210000
opls_181-59    C    0.74840006    0.67347993    0.13937032    -0.18760000
opls_700-60    C    0.68870994    0.37672010    0.97134006    0.06870000
opls_145-61    C    0.64583011    0.35486002    0.96284006    -0.09720000
opls_700-62    C    0.70936996    0.28983982    0.00850000    0.06870000
opls_145-63    C    0.55293996    0.30026005    0.91196974    -0.13790000
opls_145-64    C    0.51164006    0.27498990    0.92358069    -0.11950000
opls_700-65    C    0.49500992    0.23928009    0.03454035    0.06060000
opls_145-66    C    0.52146994    0.23128006    0.14345965    -0.11680000
opls_145-67    C    0.56277995    0.25602993    0.13305043    -0.13380000
opls_700-68    C    0.45032000    0.20816996    0.02315994    0.01380000
opls_423-69    C    0.44473997    0.16782010    0.02415994    0.23210000
opls_142-70    C    0.42058995    0.21873984    0.01961960    -0.19720000
opls_145-71    C    0.37991006    0.19335009    0.97934006    0.01360000
opls_166-72    C    0.35307996    0.20721985    0.99562968    0.24320000
opls_145-73    C    0.30853000    0.18002004    0.94548991    -0.20000000
opls_181-74    C    0.36388992    0.27072989    0.90398991    -0.19100000
opls_700-75    C    0.97923988    0.95643981    0.94765994    0.06400000
opls_145-76    C    0.02199994    0.98003983    0.93980980    -0.14250000
opls_700-77    C    0.95418993    0.04170004    0.98022046    0.06720000
opls_145-78    C    0.11360014    0.02893004    0.96485014    -0.13790000
opls_145-79    C    0.15527011    0.05166009    0.98461960    -0.13160000
opls_700-80    C    0.17500008    0.09353013    0.02724063    0.06540000
opls_145-81    C    0.14937992    0.11001011    0.05174928    -0.11940000
opls_145-82    C    0.10803003    0.08771989    0.02891931    -0.13180000
opls_700-83    C    0.22153990    0.12102984    0.03858934    -0.00010000
opls_423-84    C    0.23544004    0.16193004    0.10447983    0.23230000
opls_142-85    C    0.24945988    0.10880987    0.99736023    -0.07240000
opls_700-86    C    0.29098006    0.13458999    0.97196974    0.00530000
opls_166-87    C    0.31821008    0.12099008    0.95412968    0.26420000
opls_145-88    C    0.36264013    0.15044010    0.90251009    -0.20210000
opls_181-89    C    0.32651986    0.07491984    0.13937032    -0.18760000
opls_700-90    C    0.37671999    0.68800991    0.47134006    0.06870000
opls_145-91    C    0.35485993    0.70903007    0.46284006    -0.09720000
opls_700-92    C    0.28983993    0.58047008    0.50850000    0.06870000
opls_145-93    C    0.30025992    0.74732004    0.41196974    -0.13790000
opls_145-94    C    0.27498986    0.76334986    0.42358069    -0.11950000
opls_700-95    C    0.23928010    0.74426998    0.53454035    0.06060000
opls_145-96    C    0.23127981    0.70980988    0.64345965    -0.11680000
opls_145-97    C    0.25603014    0.69325007    0.63305043    -0.13380000
opls_700-98    C    0.20816993    0.75784985    0.52315994    0.01370000
opls_423-99    C    0.16781988    0.72307983    0.52415994    0.23210000
opls_142-100    C    0.21874005    0.79814993    0.51961960    -0.19720000
opls_145-101    C    0.19335012    0.81344000    0.47934006    0.01360000
opls_166-102    C    0.20722003    0.85413985    0.49562968    0.24320000
opls_145-103    C    0.18001987    0.87148980    0.44548991    -0.20000000
opls_181-104    C    0.27072989    0.90683990    0.40398991    -0.19100000
opls_700-105    C    0.95643982    0.97719983    0.44765994    0.06400000
opls_145-106    C    0.98003989    0.95803981    0.43980980    -0.14250000
opls_700-107    C    0.04169998    0.08750984    0.48022046    0.06720000
opls_145-108    C    0.02892992    0.91532986    0.46485014    -0.13790000
opls_145-109    C    0.05166000    0.89638992    0.48461960    -0.13160000
opls_700-110    C    0.09352992    0.91852988    0.52724063    0.06540000
opls_145-111    C    0.11001006    0.96063000    0.55175072    -0.11940000
opls_145-112    C    0.08772005    0.97968984    0.52891931    -0.13180000
opls_700-113    C    0.12102985    0.89948976    0.53858934    -0.00010000
opls_423-114    C    0.16192999    0.92648984    0.60447983    0.23230000
opls_142-115    C    0.10881010    0.85934996    0.49736023    -0.07240000
opls_700-116    C    0.13458998    0.84361004    0.47196974    0.00530000
opls_166-117    C    0.12098988    0.80277996    0.45412968    0.26420000
opls_145-118    C    0.15043987    0.78779982    0.40251009    -0.20210000
opls_181-119    C    0.07491991    0.74839977    0.63937032    -0.18760000
opls_700-120    C    0.31199007    0.68870989    0.47134006    0.06870000
opls_145-121    C    0.29096992    0.64582995    0.46284006    -0.09720000
opls_700-122    C    0.41952992    0.70937004    0.50850000    0.06880000
opls_145-123    C    0.25268005    0.55294001    0.41196974    -0.13790000
opls_145-124    C    0.23664994    0.51164004    0.42358069    -0.11960000
opls_700-125    C    0.25572993    0.49500981    0.53454035    0.06070000
opls_145-126    C    0.29018998    0.52146987    0.64345965    -0.11680000
opls_145-127    C    0.30674981    0.56277985    0.63305043    -0.13380000
opls_700-128    C    0.24214991    0.45031980    0.52315994    0.01370000
opls_423-129    C    0.27691993    0.44473997    0.52415994    0.23210000
opls_142-130    C    0.20184990    0.42058991    0.51961960    -0.19720000
opls_145-131    C    0.18655994    0.37991009    0.47934006    0.01360000
opls_166-132    C    0.14585993    0.35308001    0.49562968    0.24330000
opls_145-133    C    0.12850998    0.30852994    0.44548991    -0.20000000
opls_181-134    C    0.09316003    0.36388999    0.40398991    -0.19090000
opls_700-135    C    0.02280006    0.97923998    0.44765994    0.06400000
opls_145-136    C    0.04196005    0.02200002    0.43980980    -0.14250000
opls_700-137    C    0.91249006    0.95418990    0.48022046    0.06720000
opls_145-138    C    0.08466981    0.11359988    0.46485014    -0.13770000
opls_145-139    C    0.10360996    0.15526987    0.48461960    -0.13160000
opls_700-140    C    0.08147000    0.17499995    0.52724063    0.06540000
opls_145-141    C    0.03937013    0.14938011    0.55175072    -0.11940000
opls_145-142    C    0.02030998    0.10803005    0.52891931    -0.13180000
opls_700-143    C    0.10051005    0.22154008    0.53858934    -0.00010000
opls_423-144    C    0.07350990    0.23543989    0.60447983    0.23220000
opls_142-145    C    0.14065004    0.24945991    0.49736023    -0.07230000
opls_700-146    C    0.15639008    0.29097995    0.47196974    0.00530000
opls_166-147    C    0.19721979    0.31820981    0.45412968    0.26430000
opls_145-148    C    0.21220012    0.36263998    0.40251009    -0.20210000
opls_181-149    C    0.25159994    0.32652007    0.63937032    -0.18760000
opls_700-150    C    0.31129006    0.62327990    0.47134006    0.06870000
opls_145-151    C    0.35416989    0.64513998    0.46284006    -0.09720000
opls_700-152    C    0.29062989    0.71015988    0.50850000    0.06870000
opls_145-153    C    0.44706004    0.69973995    0.41196974    -0.13790000
opls_145-154    C    0.48835979    0.72500980    0.42358069    -0.11950000
opls_700-155    C    0.50499008    0.76071991    0.53454035    0.06070000
opls_145-156    C    0.47853006    0.76871994    0.64345965    -0.11680000
opls_145-157    C    0.43721990    0.74396977    0.63305043    -0.13380000
opls_700-158    C    0.54968000    0.79183004    0.52315994    0.01370000
opls_423-159    C    0.55526003    0.83217990    0.52415994    0.23210000
opls_142-160    C    0.57940990    0.78125986    0.51961960    -0.19720000
opls_145-161    C    0.62008994    0.80664991    0.47934006    0.01360000
opls_166-162    C    0.64691989    0.79277984    0.49562968    0.24320000
opls_145-163    C    0.69147000    0.81997996    0.44548991    -0.20000000
opls_181-164    C    0.63610993    0.72926980    0.40398991    -0.19090000
opls_700-165    C    0.02075997    0.04355989    0.44765994    0.06400000
opls_145-166    C    0.97799991    0.01995986    0.43980980    -0.14250000
opls_700-167    C    0.04581007    0.95829996    0.48022046    0.06730000
opls_145-168    C    0.88639986    0.97106996    0.46485014    -0.13790000
opls_145-169    C    0.84472989    0.94833991    0.48461960    -0.13160000
opls_700-170    C    0.82499992    0.90646987    0.52724063    0.06540000
opls_145-171    C    0.85062008    0.88998989    0.55175072    -0.11940000
opls_145-172    C    0.89196982    0.91227980    0.52891931    -0.13180000
opls_700-173    C    0.77845995    0.87896985    0.53858934    -0.00010000
opls_423-174    C    0.76455996    0.83806996    0.60447983    0.23240000
opls_142-175    C    0.75053997    0.89118982    0.49736023    -0.07240000
opls_700-176    C    0.70901994    0.86541001    0.47196974    0.00530000
opls_166-177    C    0.68178992    0.87900992    0.45412968    0.26420000
opls_145-178    C    0.63735987    0.84955990    0.40251009    -0.20210000
opls_181-179    C    0.67347999    0.92507986    0.63937032    -0.18740000
opls_753-180    N    0.80549995    0.05183008    0.16228963    -0.36450000
opls_753-181    N    0.86389992    0.30611005    0.03290058    -0.28770000
opls_753-182    N    0.94816990    0.75366998    0.16228963    -0.36450000
opls_753-183    N    0.69388991    0.55778981    0.03290058    -0.28770000
opls_753-184    N    0.24632988    0.19449993    0.16228963    -0.36440000
opls_753-185    N    0.44221001    0.13609984    0.03290058    -0.28740000
opls_753-186    N    0.19450005    0.94816992    0.66228963    -0.36450000
opls_753-187    N    0.13610008    0.69388995    0.53290058    -0.28770000
opls_753-188    N    0.05183010    0.24633002    0.66228963    -0.36440000
opls_753-189    N    0.30610994    0.44220989    0.53290058    -0.28760000
opls_753-190    N    0.75366996    0.80549976    0.66228963    -0.36450000
opls_753-191    N    0.55778983    0.86389986    0.53290058    -0.28760000
opls_179-192    O    0.75396010    0.11914997    0.05457061    -0.15000000
opls_179-193    O    0.91906010    0.22629001    0.97705043    -0.14780000
opls_179-194    O    0.88085001    0.63480991    0.05457061    -0.15010000
opls_179-195    O    0.77370985    0.69276986    0.97705043    -0.14770000
opls_179-196    O    0.36519000    0.24603982    0.05457061    -0.15010000
opls_179-197    O    0.30723005    0.08094013    0.97705043    -0.14780000
opls_179-198    O    0.24603990    0.88085003    0.55457061    -0.15010000
opls_179-199    O    0.08093990    0.77370999    0.47705043    -0.14770000
opls_179-200    O    0.11914999    0.36519009    0.55457061    -0.15010000
opls_179-201    O    0.22629000    0.30722984    0.47705043    -0.14780000
opls_179-202    O    0.63480985    0.75395987    0.55457061    -0.15010000
opls_179-203    O    0.69276995    0.91905987    0.47705043    -0.14780000
opls_146-204    H    0.62804995    0.25760990    0.97525937    0.10350000
opls_146-205    H    0.67373995    0.23888001    0.81250000    0.06230000
opls_146-206    H    0.71751984    0.21039983    0.83130980    0.07820000
opls_146-207    H    0.79588998    0.30573000    0.23531988    0.10220000
opls_146-208    H    0.75190992    0.33465003    0.21460951    0.10260000
opls_144-209    H    0.74934007    0.17940991    0.05239049    0.11740000
opls_146-210    H    0.81340008    0.11638008    0.79760951    0.10320000
opls_185-211    H    0.74066014    0.07307001    0.85630980    0.09910000
opls_185-212    H    0.72855993    0.11099998    0.78062968    0.09690000
opls_185-213    H    0.69821011    0.07402012    0.95821037    0.10470000
opls_146-214    H    0.03558994    0.07513991    0.95129971    0.08700000
opls_146-215    H    0.00326002    0.10397009    0.92901009    0.09020000
opls_146-216    H    0.96455003    0.13659007    0.96069020    0.10440000
opls_146-217    H    0.85806000    0.01924986    0.08951009    0.05740000
opls_146-218    H    0.89543984    0.98716989    0.04622046    0.06060000
opls_144-219    H    0.92369006    0.16194005    0.97726945    0.08700000
opls_146-220    H    0.84870019    0.21465012    0.74430980    0.11740000
opls_185-221    H    0.91445989    0.23330989    0.27195965    0.09870000
opls_185-222    H    0.90858009    0.26832002    0.12035014    0.09900000
opls_185-223    H    0.95757992    0.27399001    0.15428963    0.09660000
opls_146-224    H    0.74239007    0.37043997    0.97525937    0.10340000
opls_146-225    H    0.76112009    0.43486005    0.81250000    0.06230000
opls_146-226    H    0.78959990    0.50711989    0.83130980    0.07820000
opls_146-227    H    0.69427006    0.49016000    0.23531988    0.10220000
opls_146-228    H    0.66535002    0.41725998    0.21460951    0.10260000
opls_144-229    H    0.82058984    0.56992995    0.05239049    0.11750000
opls_146-230    H    0.88361981    0.69701985    0.79760951    0.10330000
opls_185-231    H    0.92693005    0.66758986    0.85630980    0.09920000
opls_185-232    H    0.88899994    0.61755982    0.78062968    0.09690000
opls_185-233    H    0.92598009    0.62418994    0.95821037    0.10470000
opls_146-234    H    0.92486012    0.96044999    0.95129971    0.08700000
opls_146-235    H    0.89603014    0.89929003    0.92901009    0.09020000
opls_146-236    H    0.86341005    0.82795996    0.96069020    0.10630000
opls_146-237    H    0.98074991    0.83881002    0.08951009    0.05740000
opls_146-238    H    0.01283002    0.90826992    0.04622046    0.06060000
opls_144-239    H    0.83805999    0.76174985    0.97726945    0.08700000
opls_146-240    H    0.78534983    0.63404982    0.74430980    0.11750000
opls_185-241    H    0.76668988    0.68115000    0.27195965    0.09870000
opls_185-242    H    0.73167986    0.64025983    0.12035014    0.09900000
opls_185-243    H    0.72601000    0.68358993    0.15428963    0.09660000
opls_146-244    H    0.62955982    0.37194983    0.97525937    0.10340000
opls_146-245    H    0.56513996    0.32625993    0.81250000    0.06230000
opls_146-246    H    0.49288010    0.28247997    0.83130980    0.07820000
opls_146-247    H    0.50983996    0.20410999    0.23531988    0.10220000
opls_146-248    H    0.58274005    0.24808999    0.21460951    0.10260000
opls_144-249    H    0.43006993    0.25065984    0.05239049    0.11730000
opls_146-250    H    0.30298011    0.18660007    0.79760951    0.10320000
opls_185-251    H    0.33240992    0.25933982    0.85630980    0.09910000
opls_185-252    H    0.38243998    0.27143989    0.78062968    0.09690000
opls_185-253    H    0.37581006    0.30178994    0.95821037    0.10480000
opls_146-254    H    0.03954980    0.96440979    0.95129971    0.08700000
opls_146-255    H    0.10070985    0.99673988    0.92901009    0.09020000
opls_146-256    H    0.17203992    0.03544997    0.96069020    0.10620000
opls_146-257    H    0.16119009    0.14194012    0.08951009    0.05740000
opls_146-258    H    0.09172999    0.10455988    0.04622046    0.06060000
opls_144-259    H    0.23824995    0.07631009    0.97726945    0.08700000
opls_146-260    H    0.36594997    0.15130005    0.74430980    0.11740000
opls_185-261    H    0.31884997    0.08554011    0.27195965    0.09870000
opls_185-262    H    0.35973990    0.09141985    0.12035014    0.09900000
opls_185-263    H    0.31641008    0.04242006    0.15428963    0.09660000
opls_146-264    H    0.37194989    0.74238980    0.47525937    0.10340000
opls_146-265    H    0.32626005    0.76111999    0.31250000    0.06230000
opls_146-266    H    0.28248001    0.78959986    0.33130980    0.07820000
opls_146-267    H    0.20411002    0.69427000    0.73531988    0.10220000
opls_146-268    H    0.24809008    0.66534997    0.71460951    0.10260000
opls_144-269    H    0.25065977    0.82058979    0.55239049    0.11750000
opls_146-270    H    0.18659992    0.88361992    0.29760951    0.10320000
opls_185-271    H    0.25933986    0.92692999    0.35630980    0.09910000
opls_185-272    H    0.27144007    0.88900002    0.28062968    0.09690000
opls_185-273    H    0.30178989    0.92597988    0.45821037    0.10470000
opls_146-274    H    0.96440991    0.92485978    0.45129971    0.08700000
opls_146-275    H    0.99673998    0.89602991    0.42901009    0.09020000
opls_146-276    H    0.03544997    0.86340993    0.46069020    0.10440000
opls_146-277    H    0.14193985    0.98074983    0.58951009    0.05740000
opls_146-278    H    0.10456001    0.01282980    0.54622046    0.06070000
opls_144-279    H    0.07630994    0.83805995    0.47726945    0.08700000
opls_146-280    H    0.15129981    0.78534988    0.24430980    0.11740000
opls_185-281    H    0.08553996    0.76668981    0.77195965    0.09870000
opls_185-282    H    0.09141991    0.73167998    0.62035014    0.09900000
opls_185-283    H    0.04242008    0.72600999    0.65428963    0.09660000
opls_146-284    H    0.25760993    0.62956003    0.47525937    0.10340000
opls_146-285    H    0.23887991    0.56513995    0.31250000    0.06230000
opls_146-286    H    0.21039994    0.49287980    0.33130980    0.07820000
opls_146-287    H    0.30572994    0.50984000    0.73531988    0.10220000
opls_146-288    H    0.33464998    0.58274002    0.71460951    0.10260000
opls_144-289    H    0.17940989    0.43007005    0.55239049    0.11730000
opls_146-290    H    0.11638004    0.30297985    0.29760951    0.10320000
opls_185-291    H    0.07306980    0.33240984    0.35630980    0.09910000
opls_185-292    H    0.11099990    0.38243987    0.28062968    0.09700000
opls_185-293    H    0.07401991    0.37581006    0.45821037    0.10470000
opls_146-294    H    0.07513988    0.03955001    0.45129971    0.08700000
opls_146-295    H    0.10396986    0.10070997    0.42901009    0.09020000
opls_146-296    H    0.13658995    0.17204004    0.46069020    0.10440000
opls_146-297    H    0.01925009    0.16118998    0.58951009    0.05740000
opls_146-298    H    0.98716998    0.09173008    0.54622046    0.06060000
opls_144-299    H    0.16193985    0.23824985    0.47726945    0.08700000
opls_146-300    H    0.21465002    0.36594988    0.24430980    0.11760000
opls_185-301    H    0.23331012    0.31885000    0.77195965    0.09870000
opls_185-302    H    0.26831999    0.35973987    0.62035014    0.09900000
opls_185-303    H    0.27399000    0.31641007    0.65428963    0.09660000
opls_146-304    H    0.37044002    0.62804987    0.47525937    0.10340000
opls_146-305    H    0.43486004    0.67374007    0.31250000    0.06230000
opls_146-306    H    0.50711990    0.71752003    0.33130980    0.07820000
opls_146-307    H    0.49016004    0.79589001    0.73531988    0.10220000
opls_146-308    H    0.41725995    0.75191001    0.71460951    0.10270000
opls_144-309    H    0.56992992    0.74933986    0.55239049    0.11730000
opls_146-310    H    0.69701989    0.81339993    0.29760951    0.10320000
opls_185-311    H    0.66758993    0.74065987    0.35630980    0.09910000
opls_185-312    H    0.61755987    0.72855980    0.28062968    0.09690000
opls_185-313    H    0.62418994    0.69821006    0.45821037    0.10470000
opls_146-314    H    0.96045005    0.03558991    0.45129971    0.08710000
opls_146-315    H    0.89929000    0.00325981    0.42901009    0.09020000
opls_146-316    H    0.82796008    0.96455003    0.46069020    0.10620000
opls_146-317    H    0.83880991    0.85805988    0.58951009    0.05740000
opls_146-318    H    0.90826985    0.89543981    0.54622046    0.06060000
opls_144-319    H    0.76175005    0.92368991    0.47726945    0.08700000
opls_146-320    H    0.63405003    0.84869995    0.24430980    0.11740000
opls_185-321    H    0.68115003    0.91445989    0.77195965    0.09870000
opls_185-322    H    0.64025995    0.90857984    0.62035014    0.09900000
opls_185-323    H    0.68358992    0.95757994    0.65428963    0.09660000
