#======================================================================
# Crystal Data Generated By AuToFF
#----------------------------------------------------------------------

data_AuToFF_phase_1

_cell_length_a                         22.3857
_cell_length_b                         22.5758
_cell_length_c                         6.7910
_cell_angle_alpha                      89.64
_cell_angle_beta                       90.07
_cell_angle_gamma                      119.13
_symmetry_space_group_name_H-M_alt     'P 1'
_symmetry_space_group_IT_number        1

loop_
_space_group_symop_operation_xyz
   'x, y, z'

loop_
   _atom_site_label
   _atom_site_type_symbol
   _atom_site_fract_x
   _atom_site_fract_y
   _atom_site_fract_z
   _atom_site_charge
opls_916-0    C    0.92077999    0.93357008    0.05748029    0.13580000
opls_145-1    C    0.95292014    0.89328017    0.03333014    -0.23050000
opls_166-2    C    0.02374006    0.92560025    0.99762033    0.20220000
opls_916-3    C    0.06370013    0.99784023    0.98439960    0.15930000
opls_145-4    C    0.03142992    0.03823992    0.00753072    -0.19550000
opls_166-5    C    0.96053987    0.00596996    0.04440976    0.22280000
opls_142-6    C    0.18246977    0.09007980    0.92290067    0.05300000
opls_700-7    C    0.25171967    0.10939977    0.90119057    -0.12130000
opls_280-8    C    0.27644004    0.05938981    0.91542001    0.17150000
opls_280-9    C    0.29992980    0.18317010    0.87847029    0.17050000
opls_700-10    C    0.35141022    0.08534020    0.92374003    -0.12130000
opls_700-11    C    0.37428981    0.20663008    0.87913001    -0.12120000
opls_280-12    C    0.40106991    0.15850991    0.89976071    0.17300000
opls_142-13    C    0.42303995    0.27579975    0.87900042    0.05420000
opls_142-14    C    0.37296983    0.03815002    0.96794068    0.05370000
opls_916-15    C    0.45078997    0.39544980    0.89644006    0.16170000
opls_145-16    C    0.52248999    0.42315994    0.92078017    -0.19620000
opls_166-17    C    0.42139969    0.43911988    0.90295029    0.22290000
opls_166-18    C    0.56341002    0.49313015    0.95743095    0.20210000
opls_145-19    C    0.46243971    0.50914996    0.93935958    -0.19210000
opls_916-20    C    0.53399997    0.53661002    0.96871967    0.15450000
opls_142-21    C    0.80196027    0.83949031    0.08747064    0.05420000
opls_700-22    C    0.73222978    0.81843994    0.10769050    -0.12120000
opls_280-23    C    0.70782991    0.86828987    0.12940059    0.15830000
opls_280-24    C    0.68386012    0.74488014    0.08664011    0.17370000
opls_700-25    C    0.63314002    0.84317994    0.12845962    -0.14010000
opls_700-26    C    0.60953008    0.72211010    0.07949962    -0.05110000
opls_142-27    C    0.61333009    0.89314034    0.13049029    0.05290000
opls_280-28    C    0.58297000    0.77008008    0.11034996    0.17050000
opls_142-29    C    0.56110024    0.65447027    0.03999058    0.05350000
opls_916-30    C    0.52284008    0.92447023    0.09810996    0.16220000
opls_145-31    C    0.56643021    0.99571016    0.07743950    -0.19550000
opls_166-32    C    0.45051012    0.89713992    0.08825994    0.20290000
opls_166-33    C    0.53773000    0.03827008    0.04435969    0.20100000
opls_145-34    C    0.42179992    0.93966008    0.05686033    -0.19620000
opls_916-35    C    0.46531992    0.01072989    0.03109036    0.14040000
opls_181-36    C    0.95566012    0.11277986    0.05013953    -0.19270000
opls_181-37    C    0.02646015    0.81784005    0.00050951    -0.19310000
opls_181-38    C    0.33842994    0.79363029    0.08904040    -0.19310000
opls_181-39    C    0.65033004    0.14128991    0.03472025    -0.19270000
opls_181-40    C    0.31579011    0.44583022    0.89047027    -0.19270000
opls_181-41    C    0.66790009    0.48422005    0.98306103    -0.19310000
opls_916-42    C    0.98595025    0.05477018    0.53859973    0.16170000
opls_145-43    C    0.01796004    0.01418976    0.51375012    -0.19600000
opls_166-44    C    0.08854996    0.04611014    0.47220009    0.20260000
opls_916-45    C    0.12832025    0.11840017    0.45405951    0.13580000
opls_145-46    C    0.09666971    0.15892976    0.48282027    -0.23050000
opls_166-47    C    0.02627012    0.12698996    0.52489011    0.20220000
opls_142-48    C    0.24577986    0.21226011    0.39472967    0.05300000
opls_700-49    C    0.31559013    0.23371006    0.37382949    -0.12120000
opls_280-50    C    0.34115020    0.18433018    0.37706031    0.17010000
opls_280-51    C    0.36314999    0.30798007    0.36914966    0.17190000
opls_700-52    C    0.41600002    0.21052983    0.38616079    -0.12120000
opls_700-53    C    0.43775018    0.33213018    0.38023959    -0.05110000
opls_280-54    C    0.46533026    0.28417019    0.38413012    0.17270000
opls_142-55    C    0.48547979    0.40099987    0.40313068    0.05380000
opls_142-56    C    0.43664005    0.16169022    0.41398941    0.05300000
opls_916-57    C    0.51258983    0.51981009    0.45142950    0.13790000
opls_145-58    C    0.58415988    0.54691984    0.47939065    -0.19550000
opls_166-59    C    0.48389007    0.56390026    0.46441020    0.19250000
opls_166-60    C    0.62537021    0.61637011    0.52269009    0.22280000
opls_145-61    C    0.52470016    0.63292027    0.51394008    -0.19550000
opls_916-62    C    0.59609010    0.65976027    0.54347983    0.16170000
opls_142-63    C    0.86636020    0.96263009    0.59008961    0.05360000
opls_700-64    C    0.79738991    0.94363982    0.61765022    -0.12140000
opls_280-65    C    0.77371997    0.99451009    0.62754000    0.17160000
opls_280-66    C    0.74831996    0.86960983    0.61953953    0.17270000
opls_700-67    C    0.69884992    0.96976015    0.62798030    -0.05270000
opls_700-68    C    0.67414976    0.84698992    0.62484961    -0.12130000
opls_142-69    C    0.67791968    0.01865982    0.60820958    0.05320000
opls_280-70    C    0.64845993    0.89621984    0.63220952    0.17050000
opls_142-71    C    0.62469016    0.77844004    0.60429990    0.05300000
opls_916-72    C    0.58559971    0.04768978    0.56191051    0.13970000
opls_145-73    C    0.62870991    0.11896983    0.53940081    -0.19550000
opls_166-74    C    0.51314983    0.01982996    0.54757946    0.20100000
opls_166-75    C    0.59962985    0.16092981    0.50249085    0.20100000
opls_145-76    C    0.48417019    0.06175006    0.50764043    -0.19550000
opls_916-77    C    0.52742974    0.13282975    0.48198974    0.13520000
opls_181-78    C    0.02564994    0.23567010    0.53828019    -0.19310000
opls_181-79    C    0.09363000    0.93937022    0.47462983    -0.19270000
opls_181-80    C    0.40064993    0.91697014    0.56525030    -0.19270000
opls_181-81    C    0.71046998    0.26565025    0.51875980    -0.19310000
opls_181-82    C    0.38386012    0.57748023    0.39477974    -0.19330000
opls_181-83    C    0.73256006    0.61499009    0.47521003    -0.19310000
opls_146-84    H    0.92241004    0.83747994    0.04249983    0.12820000
opls_146-85    H    0.06191005    0.09405976    0.99753050    0.13860000
opls_144-86    H    0.16683974    0.12986007    0.91805002    0.06550000
opls_910-87    H    0.15263009    0.98952012    0.95191029    0.28130000
opls_144-88    H    0.47789982    0.28992977    0.88829086    0.06780000
opls_144-89    H    0.33328996    0.98418982    0.98942989    0.05060000
opls_146-90    H    0.54526006    0.38959994    0.91506071    0.07390000
opls_146-91    H    0.43972992    0.54278000    0.94504959    0.08540000
opls_910-92    H    0.35316994    0.30924004    0.86321005    0.29140000
opls_910-93    H    0.47525010    0.10720994    0.96723091    0.28870000
opls_144-94    H    0.81763013    0.80049021    0.06160937    0.06780000
opls_144-95    H    0.65399021    0.94726019    0.13555004    0.05040000
opls_144-96    H    0.50621020    0.64049022    0.03280002    0.06770000
opls_910-97    H    0.51093008    0.82608028    0.12127053    0.28750000
opls_910-98    H    0.63120031    0.62172021    0.02085011    0.27980000
opls_146-99    H    0.62236020    0.01714024    0.08559017    0.07580000
opls_146-100    H    0.36583023    0.91807033    0.04822960    0.09130000
opls_910-101    H    0.83188004    0.94040025    0.11223043    0.29090000
opls_185-102    H    0.00009984    0.13937014    0.15139047    0.06600000
opls_185-103    H    0.97295001    0.12850005    0.89630017    0.07970000
opls_185-104    H    0.91682975    0.12770990    0.08691990    0.08960000
opls_185-105    H    0.00566015    0.80382025    0.15270990    0.08510000
opls_185-106    H    0.98438987    0.79068013    0.89186037    0.08060000
opls_185-107    H    0.06523016    0.80145996    0.97949005    0.08040000
opls_185-108    H    0.31387007    0.81069988    0.20098957    0.07590000
opls_185-109    H    0.32432005    0.80273027    0.93867925    0.08630000
opls_185-110    H    0.31850021    0.73835025    0.10866975    0.09660000
opls_185-111    H    0.66692990    0.13285005    0.18195955    0.07590000
opls_185-112    H    0.67253013    0.12295991    0.91973023    0.08000000
opls_185-113    H    0.67024017    0.19648021    0.01350052    0.07970000
opls_185-114    H    0.32157002    0.46656011    0.04201094    0.09100000
opls_185-115    H    0.33426992    0.48815983    0.78105981    0.06670000
opls_185-116    H    0.26083993    0.41067011    0.86219987    0.07970000
opls_185-117    H    0.72290010    0.51863010    0.01363011    0.08000000
opls_185-118    H    0.64720986    0.44366989    0.09786993    0.07590000
opls_185-119    H    0.66307000    0.46106989    0.83534020    0.09020000
opls_146-120    H    0.98753983    0.95842008    0.52625960    0.13860000
opls_146-121    H    0.12726985    0.21467975    0.47208081    0.12840000
opls_144-122    H    0.22923986    0.25126015    0.40180979    0.06790000
opls_910-123    H    0.21728990    0.11131007    0.40398036    0.29090000
opls_144-124    H    0.54032001    0.41532992    0.41775036    0.06550000
opls_144-125    H    0.39645998    0.10738975    0.42053057    0.05040000
opls_146-126    H    0.60706991    0.51358003    0.46773084    0.08370000
opls_146-127    H    0.50211996    0.66655027    0.52486066    0.07390000
opls_910-128    H    0.41547985    0.43435986    0.39671028    0.31740000
opls_910-129    H    0.53863969    0.23001978    0.43034083    0.29090000
opls_144-130    H    0.88083021    0.92218014    0.57741078    0.06550000
opls_144-131    H    0.71787992    0.07300000    0.59820052    0.05040000
opls_144-132    H    0.56994984    0.76504004    0.60053013    0.06760000
opls_910-133    H    0.57549982    0.95037974    0.60826995    0.28950000
opls_910-134    H    0.69375982    0.74401009    0.59214090    0.28830000
opls_146-135    H    0.68466976    0.14105003    0.55183961    0.11230000
opls_146-136    H    0.42829008    0.03976989    0.49469065    0.09650000
opls_910-137    H    0.89819004    0.06398020    0.58832989    0.28670000
opls_185-138    H    0.06781995    0.25994019    0.64826053    0.08060000
opls_185-139    H    0.04661987    0.25227013    0.38714005    0.08520000
opls_185-140    H    0.98778012    0.25271024    0.56663010    0.08750000
opls_185-141    H    0.07975007    0.92652982    0.63185021    0.07970000
opls_185-142    H    0.04710004    0.91089006    0.38196986    0.06600000
opls_185-143    H    0.13167000    0.92379033    0.43388972    0.08960000
opls_185-144    H    0.37972997    0.93743996    0.67778997    0.08000000
opls_185-145    H    0.38265006    0.92297997    0.41736012    0.07590000
opls_185-146    H    0.38075021    0.86218015    0.59453088    0.08000000
opls_185-147    H    0.72039008    0.25583018    0.67321028    0.06660000
opls_185-148    H    0.73903972    0.25024983    0.41571968    0.07590000
opls_185-149    H    0.72977004    0.32086978    0.50033943    0.07970000
opls_185-150    H    0.38223012    0.60262997    0.53383008    0.09020000
opls_185-151    H    0.41241987    0.61666001    0.28052011    0.08020000
opls_185-152    H    0.33058993    0.54492000    0.34314997    0.07980000
opls_185-153    H    0.78786997    0.65167021    0.48930988    0.09660000
opls_185-154    H    0.72143976    0.56814987    0.56016993    0.08060000
opls_185-155    H    0.72000025    0.60219023    0.31724011    0.09100000
opls_238-156    N    0.13387960    0.02443972    0.95124027    -0.20830000
opls_238-157    N    0.40612004    0.32572985    0.87191000    -0.20830000
opls_238-158    N    0.43976994    0.05516981    0.98907059    -0.20790000
opls_238-159    N    0.85059031    0.90585029    0.09229036    -0.20830000
opls_238-160    N    0.54714983    0.87833990    0.12280937    -0.22060000
opls_238-161    N    0.57827996    0.60544013    0.00974988    -0.20800000
opls_238-162    N    0.19802988    0.14577975    0.41198083    -0.20780000
opls_238-163    N    0.46823995    0.45078025    0.41173049    -0.20800000
opls_238-164    N    0.50281010    0.17772023    0.43803942    -0.22140000
opls_238-165    N    0.91600001    0.02852003    0.57586016    -0.20780000
opls_238-166    N    0.61118997    0.00284009    0.59692086    -0.20800000
opls_238-167    N    0.64091985    0.72834021    0.58526989    -0.20780000
opls_281-168    O    0.23587978    0.99642006    0.92336011    -0.38090000
opls_281-169    O    0.27726002    0.22413992    0.86187002    -0.33530000
opls_281-170    O    0.46455989    0.17983005    0.89948092    -0.35610000
opls_179-171    O    0.06134965    0.89077987    0.96958996    -0.19930000
opls_179-172    O    0.35053982    0.40636013    0.86978066    -0.19110000
opls_281-173    O    0.74851984    0.93094995    0.14631011    -0.40370000
opls_281-174    O    0.70576005    0.70323014    0.07294963    -0.40180000
opls_281-175    O    0.51944988    0.74818987    0.11950934    -0.35610000
opls_179-176    O    0.92245015    0.03947993    0.07407026    -0.19120000
opls_179-177    O    0.63495004    0.52587021    0.98829013    -0.19930000
opls_179-178    O    0.41194992    0.82599996    0.11524036    -0.19580000
opls_179-179    O    0.57628023    0.10937011    0.01935987    -0.20260000
opls_281-180    O    0.30118003    0.12119997    0.37649042    -0.40920000
opls_281-181    O    0.34066007    0.34922002    0.35986953    -0.35490000
opls_281-182    O    0.52897013    0.30656993    0.38906028    -0.35600000
opls_179-183    O    0.12610998    0.01214993    0.44002003    -0.19100000
opls_179-184    O    0.41273982    0.53278003    0.42643999    -0.21060000
opls_281-185    O    0.81515014    0.05729012    0.63209024    -0.38110000
opls_281-186    O    0.77018993    0.82783023    0.61390989    -0.33550000
opls_281-187    O    0.58512014    0.87554005    0.63819993    -0.35600000
opls_179-188    O    0.98933970    0.16224976    0.55733082    -0.20000000
opls_179-189    O    0.69636997    0.64806993    0.55455061    -0.18980000
opls_179-190    O    0.47480032    0.94884029    0.57515039    -0.20380000
opls_179-191    O    0.63792984    0.23206011    0.47438980    -0.20310000
