#======================================================================
# Crystal Data Generated By AuToFF
#----------------------------------------------------------------------

data_AuToFF_phase_1

_cell_length_a                         30.1400
_cell_length_b                         30.1400
_cell_length_c                         7.0800
_cell_angle_alpha                      90.00
_cell_angle_beta                       90.00
_cell_angle_gamma                      120.00
_symmetry_space_group_name_H-M_alt     'P 1'
_symmetry_space_group_IT_number        1

loop_
_space_group_symop_operation_xyz
   'x, y, z'

loop_
   _atom_site_label
   _atom_site_type_symbol
   _atom_site_fract_x
   _atom_site_fract_y
   _atom_site_fract_z
   _atom_site_charge
opls_700-0    C    0.99782002    0.95238987    0.02154944    0.01580000
opls_700-1    C    0.04758001    0.04613016    0.01494068    -0.00050000
opls_700-2    C    0.95467984    0.00186001    0.96433051    0.01580000
opls_700-3    C    0.00209984    0.04787984    0.98373023    -0.00060000
opls_700-4    C    0.95263977    0.95409970    0.98086017    0.01530000
opls_700-5    C    0.04539994    0.99839974    0.03587994    0.01070000
opls_700-6    C    0.00404006    0.09567003    0.97253955    0.01650000
opls_700-7    C    0.90531001    0.90808984    0.96003955    0.02550000
opls_700-8    C    0.09103984    0.99665964    0.06410028    0.01510000
opls_700-9    C    0.99555985    0.90468972    0.04475000    0.02600000
opls_700-10    C    0.09528004    0.09214003    0.02447034    0.01700000
opls_700-11    C    0.90909005    0.00363995    0.93521045    0.02310000
opls_700-12    C    0.04070990    0.90294004    0.08826977    0.01780000
opls_700-13    C    0.09750019    0.14007006    0.00569068    0.02400000
opls_700-14    C    0.86159010    0.95765000    0.91058051    -0.00110000
opls_700-15    C    0.95840007    0.09756988    0.94604944    0.02410000
opls_700-16    C    0.90283007    0.86015981    0.98544068    0.01890000
opls_700-17    C    0.13915988    0.04258982    0.06001977    0.02020000
opls_700-18    C    0.91060990    0.05144010    0.93675000    0.02190000
opls_700-19    C    0.94823972    0.85841972    0.02177966    0.01950000
opls_700-20    C    0.14110000    0.09049993    0.04998023    0.02430000
opls_700-21    C    0.08896003    0.94895987    0.09024011    0.01600000
opls_700-22    C    0.05156004    0.14185996    0.99040960    0.02430000
opls_700-23    C    0.86007001    0.90972994    0.91659040    0.01590000
opls_145-24    C    0.96196020    0.14584011    0.92614972    -0.17640000
opls_145-25    C    0.85436989    0.81514987    0.98220056    -0.14730000
opls_145-26    C    0.18423009    0.03921001    0.05496045    -0.17630000
opls_145-27    C    0.03633989    0.85468973    0.12109040    -0.08400000
opls_145-28    C    0.14595018    0.18495012    0.99545056    -0.17250000
opls_145-29    C    0.81649976    0.96094975    0.89191949    -0.17430000
opls_700-30    C    0.99136983    0.80924994    0.08108051    0.06530000
opls_700-31    C    0.19093996    0.18403985    0.03160028    0.06620000
opls_700-32    C    0.81695989    0.00717991    0.91451977    0.06380000
opls_700-33    C    0.00747980    0.19117991    0.96253955    0.06630000
opls_700-34    C    0.81037991    0.81605976    0.92935028    0.06560000
opls_700-35    C    0.18301999    0.99275994    0.07975000    0.06380000
opls_145-36    C    0.13560011    0.94853002    0.10550000    -0.18610000
opls_145-37    C    0.05159021    0.18867014    0.99947034    -0.16940000
opls_145-38    C    0.81408994    0.86292971    0.88791949    -0.08400000
opls_145-39    C    0.86395001    0.05176000    0.94003955    -0.16470000
opls_145-40    C    0.94812988    0.81151988    0.02739972    -0.14960000
opls_145-41    C    0.18776011    0.13711013    0.06805932    -0.17210000
opls_700-42    C    0.00857003    0.24115001    0.96600989    0.06770000
opls_700-43    C    0.75982009    0.76796998    0.92512994    0.06590000
opls_700-44    C    0.23136011    0.99019999    0.07233051    0.06470000
opls_700-45    C    0.99032992    0.75935991    0.08724011    0.06610000
opls_700-46    C    0.24156998    0.23213002    0.02700000    0.06750000
opls_700-47    C    0.76811007    0.00881005    0.91812994    0.06540000
opls_145-48    C    0.98771990    0.66426992    0.08625000    0.18390000
opls_145-49    C    0.33724015    0.32366013    0.00729944    0.18310000
opls_145-50    C    0.67641992    0.01323002    0.93453955    0.18310000
opls_145-51    C    0.01107001    0.33614997    0.97966949    0.18380000
opls_145-52    C    0.66424999    0.67622991    0.93209040    0.18310000
opls_145-53    C    0.32299985    0.98581987    0.05091949    0.18320000
opls_145-54    C    0.05334976    0.33335977    0.91412994    -0.17580000
opls_145-55    C    0.66816004    0.72249991    0.98787994    -0.16750000
opls_145-56    C    0.27641991    0.94426981    0.99296045    -0.17360000
opls_145-57    C    0.94515984    0.66744975    0.14573023    -0.17770000
opls_145-58    C    0.33259995    0.27705989    0.95175989    -0.17410000
opls_145-59    C    0.72152995    0.05463985    0.86503955    -0.16960000
opls_145-60    C    0.05223992    0.28646989    0.90626977    -0.13420000
opls_145-61    C    0.71533978    0.76790983    0.98562006    -0.13130000
opls_145-62    C    0.23122008    0.94647998    0.00079944    -0.13580000
opls_145-63    C    0.94628980    0.71440973    0.14686017    -0.13340000
opls_145-64    C    0.28535011    0.23176989    0.96005932    -0.13240000
opls_145-65    C    0.76671980    0.05238984    0.85424011    -0.13510000
opls_145-66    C    0.75572977    0.72153984    0.86544068    -0.13570000
opls_145-67    C    0.27827006    0.03157994    0.13499011    -0.13640000
opls_145-68    C    0.96599005    0.24401990    0.03158051    -0.13340000
opls_145-69    C    0.24652001    0.27892986    0.08683051    -0.13570000
opls_145-70    C    0.72260999    0.96735998    0.99013983    -0.13520000
opls_145-71    C    0.03325972    0.75616974    0.02873023    -0.13390000
opls_145-72    C    0.70845990    0.67605981    0.86904944    -0.17520000
opls_145-73    C    0.32363012    0.02957014    0.12346045    -0.17530000
opls_145-74    C    0.96703982    0.29087990    0.03748023    -0.17660000
opls_145-75    C    0.29378997    0.32428001    0.07666949    -0.17370000
opls_145-76    C    0.67728000    0.96941998    0.99747034    -0.17300000
opls_145-77    C    0.03214988    0.70927986    0.02911017    -0.17580000
opls_700-78    C    0.45036988    0.45873977    0.98720056    0.05910000
opls_700-79    C    0.54161998    0.99114972    0.98332062    0.07200000
opls_700-80    C    0.00812999    0.55057982    0.03400989    0.05910000
opls_700-81    C    0.55091005    0.54114990    0.93873023    0.05700000
opls_700-82    C    0.45852007    0.00894989    0.02040960    0.06470000
opls_700-83    C    0.99057994    0.44955005    0.04115960    0.05740000
opls_145-84    C    0.96038021    0.50983009    0.09083051    -0.13160000
opls_145-85    C    0.49015982    0.44971977    0.93491949    -0.13270000
opls_145-86    C    0.55018998    0.04138992    0.99475000    -0.13540000
opls_145-87    C    0.03837007    0.49032009    0.98482062    -0.13050000
opls_145-88    C    0.51107997    0.55015993    0.99064972    -0.13160000
opls_145-89    C    0.44996984    0.95873000    0.00888983    -0.13430000
opls_145-90    C    0.50897987    0.05019000    0.01334040    -0.13240000
opls_145-91    C    0.95170016    0.45973011    0.09432062    -0.12710000
opls_145-92    C    0.54001986    0.49060973    0.91089972    -0.12260000
opls_145-93    C    0.49117000    0.94992991    0.99088983    -0.13130000
opls_145-94    C    0.04703996    0.54039976    0.98132062    -0.12470000
opls_145-95    C    0.46123984    0.50927994    0.01449011    -0.12240000
opls_142-96    C    0.39753017    0.41612006    0.01354944    0.06710000
opls_142-97    C    0.58455979    0.98090990    0.96555932    0.06750000
opls_142-98    C    0.01796007    0.60365006    0.02699011    0.06710000
opls_142-99    C    0.60382993    0.58381979    0.91454944    0.06720000
opls_142-100    C    0.41545989    0.01900007    0.03914972    0.06750000
opls_142-101    C    0.98069012    0.39643001    0.04562006    0.06700000
opls_700-102    C    0.02436014    0.97892998    0.52154944    0.01580000
opls_700-103    C    0.07412990    0.07266988    0.51494068    -0.00060000
opls_700-104    C    0.98121996    0.02840011    0.46433051    0.01580000
opls_700-105    C    0.02863996    0.07441994    0.48373023    -0.00280000
opls_700-106    C    0.97917989    0.98063981    0.48086017    0.01580000
opls_700-107    C    0.07195001    0.02493984    0.53587994    0.01060000
opls_700-108    C    0.03058018    0.12221013    0.47253955    0.01650000
opls_700-109    C    0.93186010    0.93463990    0.46003955    0.02550000
opls_700-110    C    0.11759011    0.02320013    0.56410028    0.02100000
opls_700-111    C    0.02209998    0.93122982    0.54475000    0.02600000
opls_700-112    C    0.12182016    0.11869009    0.52447034    0.01710000
opls_700-113    C    0.93563017    0.03018005    0.43521045    0.02440000
opls_700-114    C    0.06724983    0.92947976    0.58826977    0.01780000
opls_700-115    C    0.12404994    0.16661016    0.50569068    0.02410000
opls_700-116    C    0.88812970    0.98419968    0.41058051    -0.00110000
opls_700-117    C    0.98493986    0.12410998    0.44604944    0.02400000
opls_700-118    C    0.92936986    0.88669991    0.48544068    0.01890000
opls_700-119    C    0.16570000    0.06912993    0.56001977    0.02060000
opls_700-120    C    0.93715002    0.07799016    0.43675000    0.02190000
opls_700-121    C    0.97478980    0.88496978    0.52177966    0.01950000
opls_700-122    C    0.16764012    0.11704003    0.54998023    0.02210000
opls_700-123    C    0.11549982    0.97550993    0.59024011    0.01590000
opls_700-124    C    0.07810016    0.16840006    0.49040960    0.02420000
opls_700-125    C    0.88660995    0.93626966    0.41659040    0.01540000
opls_145-126    C    0.98849980    0.17238979    0.42614972    -0.17220000
opls_145-127    C    0.88091997    0.84168997    0.48220056    -0.11140000
opls_145-128    C    0.21076988    0.06576007    0.55496045    -0.17670000
opls_145-129    C    0.06288001    0.88122984    0.62109040    -0.08400000
opls_145-130    C    0.17248978    0.21149980    0.49545056    -0.17670000
opls_145-131    C    0.84303988    0.98748985    0.39191949    -0.18100000
opls_700-132    C    0.01790995    0.83579004    0.58108051    0.06530000
opls_700-133    C    0.21748009    0.21058991    0.53160028    0.06600000
opls_700-134    C    0.84350997    0.03372001    0.41451977    0.06380000
opls_700-135    C    0.03401993    0.21772001    0.46253955    0.06630000
opls_700-136    C    0.83692004    0.84259986    0.42935028    0.06520000
opls_700-137    C    0.20957006    0.01930005    0.57975000    0.06350000
opls_145-138    C    0.16213971    0.97506974    0.60550000    -0.17800000
opls_145-139    C    0.07812982    0.21520986    0.49947034    -0.16940000
opls_145-140    C    0.84062974    0.88947978    0.38791949    -0.08400000
opls_145-141    C    0.89049013    0.07831006    0.44003955    -0.16480000
opls_145-142    C    0.97467000    0.83805998    0.52739972    -0.14960000
opls_145-143    C    0.21431000    0.16365981    0.56805932    -0.17640000
opls_700-144    C    0.03512011    0.26770007    0.46600989    0.06780000
opls_700-145    C    0.78636998    0.79450969    0.42512994    0.06580000
opls_700-146    C    0.25789991    0.01674009    0.57233051    0.06540000
opls_700-147    C    0.01688000    0.78590001    0.58724011    0.06700000
opls_700-148    C    0.26811011    0.25868008    0.52700000    0.06750000
opls_700-149    C    0.79465019    0.03535015    0.41812994    0.06540000
opls_145-150    C    0.01426002    0.69081998    0.58625000    0.18390000
opls_145-151    C    0.36378008    0.35019985    0.50729944    0.18320000
opls_145-152    C    0.70296004    0.03977012    0.43453955    0.18310000
opls_145-153    C    0.03761014    0.36270004    0.47966949    0.18400000
opls_145-154    C    0.69079012    0.70277002    0.43209040    0.18320000
opls_145-155    C    0.34953997    0.01235997    0.55091949    0.18330000
opls_145-156    C    0.07988989    0.35990983    0.41412994    -0.17580000
opls_145-157    C    0.69471012    0.74904002    0.48787994    -0.16750000
opls_145-158    C    0.30296003    0.97080991    0.49296045    -0.17360000
opls_145-159    C    0.97169997    0.69399981    0.64573023    -0.17770000
opls_145-160    C    0.35914008    0.30360995    0.45175989    -0.16940000
opls_145-161    C    0.74807007    0.08118992    0.36503955    -0.16950000
opls_145-162    C    0.07878005    0.31301996    0.40626977    -0.13430000
opls_145-163    C    0.74188986    0.79444993    0.48562006    -0.13130000
opls_145-164    C    0.25776002    0.97301970    0.50079944    -0.13570000
opls_145-165    C    0.97282993    0.74094983    0.64686017    -0.13340000
opls_145-166    C    0.31189986    0.25831995    0.46005932    -0.13270000
opls_145-167    C    0.79325993    0.07892994    0.35424011    -0.13530000
opls_145-168    C    0.78227985    0.74808990    0.36544068    -0.13530000
opls_145-169    C    0.30480986    0.05812005    0.63499011    -0.13640000
opls_145-170    C    0.99252984    0.27056001    0.53158051    -0.13530000
opls_145-171    C    0.27306013    0.30546996    0.58683051    -0.13540000
opls_145-172    C    0.74915987    0.99389970    0.49013983    -0.13520000
opls_145-173    C    0.05980980    0.78270984    0.52873023    -0.13260000
opls_145-174    C    0.73500002    0.70259991    0.36904944    -0.17510000
opls_145-175    C    0.35017006    0.05610986    0.62346045    -0.17530000
opls_145-176    C    0.99357994    0.31742000    0.53748023    -0.17660000
opls_145-177    C    0.32033009    0.35082011    0.57666949    -0.17550000
opls_145-178    C    0.70381993    0.99596966    0.49747034    -0.17420000
opls_145-179    C    0.05869996    0.73581996    0.52911017    -0.17630000
opls_700-180    C    0.47691001    0.48527987    0.48720056    0.05910000
opls_700-181    C    0.56815978    0.01768983    0.48332062    0.06590000
opls_700-182    C    0.03467011    0.57711992    0.53400989    0.05910000
opls_700-183    C    0.57744985    0.56769996    0.43873023    0.05910000
opls_700-184    C    0.48505986    0.03549995    0.52040960    0.06520000
opls_700-185    C    0.01712982    0.47608977    0.54115960    0.05740000
opls_145-186    C    0.98691981    0.53636980    0.59083051    -0.13160000
opls_145-187    C    0.51669994    0.47625987    0.43491949    -0.13270000
opls_145-188    C    0.57673011    0.06793002    0.49475000    -0.13540000
opls_145-189    C    0.06491000    0.51686977    0.48482062    -0.13020000
opls_145-190    C    0.53763005    0.57670999    0.49064972    -0.13160000
opls_145-191    C    0.47651973    0.98526972    0.50888983    -0.13340000
opls_145-192    C    0.53552995    0.07673011    0.51334040    -0.13230000
opls_145-193    C    0.97823976    0.48626983    0.59432062    -0.12750000
opls_145-194    C    0.56655999    0.51715979    0.41089972    -0.12380000
opls_145-195    C    0.51771012    0.97647001    0.49088983    -0.13050000
opls_145-196    C    0.07357976    0.56694982    0.48132062    -0.12470000
opls_145-197    C    0.48777996    0.53582004    0.51449011    -0.12270000
opls_142-198    C    0.42406977    0.44265978    0.51354944    0.06710000
opls_142-199    C    0.61109992    0.00745996    0.46555932    0.06750000
opls_142-200    C    0.04450000    0.63018978    0.52699011    0.06720000
opls_142-201    C    0.63037006    0.61035989    0.41454944    0.06720000
opls_142-202    C    0.44200001    0.04554017    0.53914972    0.06730000
opls_142-203    C    0.00722991    0.42297011    0.54562006    0.06700000
opls_146-204    H    0.14975007    0.22096000    0.95225000    0.09730000
opls_146-205    H    0.77978998    0.92789981    0.86647034    0.23530000
opls_146-206    H    0.06726997    0.85087968    0.17819068    0.09310000
opls_146-207    H    0.84928997    0.77888982    0.02852966    0.10630000
opls_146-208    H    0.22064012    0.07201016    0.02009040    0.10390000
opls_146-209    H    0.92984011    0.14929004    0.87900000    0.09300000
opls_146-210    H    0.22228009    0.13802998    0.11390960    0.09640000
opls_146-211    H    0.86304995    0.08610984    0.97376977    0.10390000
opls_146-212    H    0.91541997    0.77617969    0.98245056    0.10390000
opls_146-213    H    0.78008992    0.86129995    0.83320056    0.09310000
opls_146-214    H    0.13646978    0.91390970    0.12994068    0.23530000
opls_146-215    H    0.08523995    0.22358010    0.04224011    0.09730000
opls_146-216    H    0.93224992    0.21020987    0.08350000    0.11270000
opls_146-217    H    0.78898993    0.72054987    0.81335028    0.11310000
opls_146-218    H    0.27980013    0.06505016    0.19773023    0.11520000
opls_146-219    H    0.06731988    0.78974991    0.97725989    0.11340000
opls_146-220    H    0.21405990    0.28034010    0.14524011    0.11310000
opls_146-221    H    0.72235974    0.93407979    0.04866949    0.11260000
opls_146-222    H    0.70693992    0.64145980    0.82022034    0.11680000
opls_146-223    H    0.35853990    0.06146998    0.17714972    0.11560000
opls_146-224    H    0.93364998    0.29114999    0.09024011    0.09800000
opls_146-225    H    0.29602010    0.35908997    0.12687006    0.09770000
opls_146-226    H    0.64382988    0.93775000    0.06046045    0.11260000
opls_146-227    H    0.06588001    0.70880978    0.98178955    0.09730000
opls_146-228    H    0.08708007    0.36790002    0.86692938    0.11570000
opls_146-229    H    0.63441987    0.72283974    0.03798023    0.11520000
opls_146-230    H    0.27568984    0.91059999    0.93597034    0.11570000
opls_146-231    H    0.91108978    0.63314971    0.19233051    0.11520000
opls_146-232    H    0.36575993    0.27634998    0.89707062    0.11580000
opls_146-233    H    0.72114996    0.08844989    0.81596045    0.11280000
opls_146-234    H    0.08517982    0.28561977    0.84994068    0.11580000
opls_146-235    H    0.71723990    0.80262976    0.03709040    0.11560000
opls_146-236    H    0.19660982    0.91446981    0.94489972    0.11540000
opls_146-237    H    0.91297987    0.71562995    0.19680932    0.11270000
opls_146-238    H    0.28288019    0.19682009    0.90837006    0.11570000
opls_146-239    H    0.80025996    0.08450997    0.79274011    0.11590000
opls_146-240    H    0.48250984    0.41099977    0.91180932    0.11290000
opls_146-241    H    0.58881986    0.07373992    0.98992938    0.11150000
opls_146-242    H    0.92994007    0.51691000    0.13303955    0.11140000
opls_146-243    H    0.51871999    0.58886001    0.01400989    0.11140000
opls_146-244    H    0.41136996    0.92634973    0.01408051    0.11310000
opls_146-245    H    0.06879993    0.48327006    0.94233051    0.11310000
opls_146-246    H    0.91468986    0.42893976    0.13937994    0.11350000
opls_146-247    H    0.57003005    0.48279002    0.86990960    0.11560000
opls_146-248    H    0.51653997    0.08921995    0.02214972    0.11300000
opls_146-249    H    0.08402982    0.57115985    0.93599011    0.11310000
opls_146-250    H    0.43124013    0.51711995    0.05570056    0.11140000
opls_146-251    H    0.48359995    0.91089000    0.98251977    0.11310000
opls_144-252    H    0.36837010    0.42537988    0.05084040    0.11130000
opls_144-253    H    0.57575970    0.94145968    0.96433051    0.11680000
opls_144-254    H    0.05411982    0.63262982    0.96952966    0.09520000
opls_144-255    H    0.63294002    0.57474003    0.87442938    0.11160000
opls_144-256    H    0.42418988    0.05833995    0.04983051    0.11680000
opls_144-257    H    0.94441005    0.36716981    0.10129944    0.11670000
opls_146-258    H    0.17629019    0.24750010    0.45225000    0.09640000
opls_146-259    H    0.80633011    0.95443991    0.36647034    0.23530000
opls_146-260    H    0.09382005    0.87741978    0.67819068    0.09310000
opls_146-261    H    0.87583010    0.80543989    0.52852966    0.08840000
opls_146-262    H    0.24718005    0.09855984    0.52009040    0.10390000
opls_146-263    H    0.95639018    0.17583014    0.37900000    0.09620000
opls_146-264    H    0.24881988    0.16457008    0.61390960    0.08390000
opls_146-265    H    0.88959007    0.11265991    0.47376977    0.10390000
opls_146-266    H    0.94195976    0.80271979    0.48245056    0.10390000
opls_146-267    H    0.80662986    0.88783967    0.33320056    0.10300000
opls_146-268    H    0.16301986    0.94044980    0.62994068    0.23530000
opls_146-269    H    0.11177988    0.25011982    0.54224011    0.09730000
opls_146-270    H    0.95879005    0.23674997    0.58350000    0.11270000
opls_146-271    H    0.81553006    0.74708998    0.31335028    0.11270000
opls_146-272    H    0.30635002    0.09158988    0.69773023    0.11260000
opls_146-273    H    0.09386000    0.81629001    0.47725989    0.11300000
opls_146-274    H    0.24060978    0.30687982    0.64524011    0.11280000
opls_146-275    H    0.74889986    0.96062985    0.54866949    0.11380000
opls_146-276    H    0.73348005    0.66800986    0.32022034    0.11220000
opls_146-277    H    0.38508002    0.08801008    0.67714972    0.11560000
opls_146-278    H    0.96020006    0.31769009    0.59024011    0.08840000
opls_146-279    H    0.32256985    0.38564003    0.62687006    0.11680000
opls_146-280    H    0.67036981    0.96428972    0.56046045    0.11550000
opls_146-281    H    0.09241980    0.73534988    0.48178955    0.09650000
opls_146-282    H    0.11363015    0.39444012    0.36692938    0.11520000
opls_146-283    H    0.66095999    0.74937984    0.53798023    0.11560000
opls_146-284    H    0.30222977    0.93713971    0.43597034    0.11580000
opls_146-285    H    0.93762991    0.65968981    0.69233051    0.11570000
opls_146-286    H    0.39230005    0.30289008    0.39707062    0.11280000
opls_146-287    H    0.74769009    0.11499000    0.31596045    0.11260000
opls_146-288    H    0.11171995    0.31215987    0.34994068    0.11560000
opls_146-289    H    0.74378002    0.82916986    0.53709040    0.11300000
opls_146-290    H    0.22314994    0.94100991    0.44489972    0.11540000
opls_146-291    H    0.93952000    0.74218001    0.69680932    0.11300000
opls_146-292    H    0.30941979    0.22335981    0.40837006    0.11280000
opls_146-293    H    0.82681004    0.11105007    0.29274011    0.11260000
opls_146-294    H    0.50904996    0.43754983    0.41180932    0.11150000
opls_146-295    H    0.61535998    0.10028002    0.48992938    0.11140000
opls_146-296    H    0.95648000    0.54344972    0.63303955    0.11140000
opls_146-297    H    0.54525992    0.61539973    0.51400989    0.11310000
opls_146-298    H    0.43791008    0.95288983    0.51408051    0.11140000
opls_146-299    H    0.09534981    0.50980978    0.44233051    0.11170000
opls_146-300    H    0.94122998    0.45547987    0.63937994    0.11340000
opls_146-301    H    0.59657993    0.50932974    0.36990960    0.11340000
opls_146-302    H    0.54308009    0.11576005    0.52214972    0.11310000
opls_146-303    H    0.11057990    0.59770991    0.43599011    0.11140000
opls_146-304    H    0.45777992    0.54366005    0.55570056    0.11140000
opls_146-305    H    0.51014983    0.93742972    0.48251977    0.11310000
opls_144-306    H    0.39490989    0.45191999    0.55084040    0.11130000
opls_144-307    H    0.60230002    0.96800017    0.46433051    0.11520000
opls_144-308    H    0.08065995    0.65916993    0.46952966    0.09520000
opls_144-309    H    0.65947996    0.60128971    0.37442938    0.11130000
opls_144-310    H    0.45073001    0.08488005    0.54983051    0.11680000
opls_144-311    H    0.97094985    0.39370991    0.60129944    0.11660000
opls_750-312    N    0.61487993    0.63075985    0.94515960    -0.36450000
opls_750-313    N    0.36826988    0.98155966    0.03550989    -0.35220000
opls_750-314    N    0.01488982    0.38560977    0.98472034    -0.35220000
opls_750-315    N    0.38657992    0.36897005    0.98900989    -0.35990000
opls_750-316    N    0.63152012    0.01823997    0.94753955    -0.35210000
opls_750-317    N    0.98377014    0.61473005    0.08588983    -0.35220000
opls_750-318    N    0.64142005    0.65730992    0.44515960    -0.36440000
opls_750-319    N    0.39481019    0.00810014    0.53550989    -0.35220000
opls_750-320    N    0.04143990    0.41214987    0.48472034    -0.35220000
opls_750-321    N    0.41311985    0.39550977    0.48900989    -0.35980000
opls_750-322    N    0.65805991    0.04478008    0.44753955    -0.35220000
opls_750-323    N    0.01030974    0.64126977    0.58588983    -0.35220000
