#======================================================================
# Crystal Data Generated By AuToFF
#----------------------------------------------------------------------

data_AuToFF_phase_1

_cell_length_a                         37.5012
_cell_length_b                         37.4998
_cell_length_c                         3.5400
_cell_angle_alpha                      90.01
_cell_angle_beta                       90.06
_cell_angle_gamma                      120.01
_symmetry_space_group_name_H-M_alt     'P 1'
_symmetry_space_group_IT_number        1

loop_
_space_group_symop_operation_xyz
   'x, y, z'

loop_
   _atom_site_label
   _atom_site_type_symbol
   _atom_site_fract_x
   _atom_site_fract_y
   _atom_site_fract_z
   _atom_site_charge
opls_700-0    C    0.47557002    0.51298979    0.25155085    -0.03470000
opls_166-1    C    0.46238987    0.47031985    0.23042938    0.22290000
opls_145-2    C    0.49064991    0.45680981    0.29588983    -0.25810000
opls_700-3    C    0.53166996    0.48412003    0.40190960    -0.03480000
opls_166-4    C    0.54463001    0.52664978    0.43042938    0.22560000
opls_145-5    C    0.51656990    0.54029984    0.35951977    -0.25140000
opls_181-6    C    0.61811994    0.56169987    0.32690960    -0.19760000
opls_181-7    C    0.38878991    0.43621980    0.33835876    -0.19760000
opls_142-8    C    0.55995994    0.46782000    0.48511017    0.07400000
opls_142-9    C    0.44765010    0.52942006    0.15529944    0.07220000
opls_145-10    C    0.43393993    0.58633980    0.12020904    0.19130000
opls_145-11    C    0.57541989    0.41136984    0.41827966    0.18740000
opls_145-12    C    0.55854007    0.37072999    0.29253107    -0.16710000
opls_145-13    C    0.58176994    0.35091994    0.29162994    -0.13040000
opls_700-14    C    0.62274009    0.37089002    0.42607062    0.06270000
opls_145-15    C    0.63927014    0.41150000    0.56444915    -0.13210000
opls_145-16    C    0.61618016    0.43169003    0.55642938    -0.18550000
opls_145-17    C    0.45197004    0.62695983    0.99122881    -0.16620000
opls_145-18    C    0.42819011    0.64577986    0.93379944    -0.13040000
opls_700-19    C    0.38571992    0.62495980    0.01827119    0.06230000
opls_145-20    C    0.36796994    0.58431993    0.15818927    -0.12910000
opls_145-21    C    0.39163001    0.56514006    0.20511017    -0.17920000
opls_700-22    C    0.64838997    0.35025003    0.39559040    0.07080000
opls_700-23    C    0.36027004    0.64526994    0.95124011    0.06270000
opls_145-24    C    0.69103001    0.37322989    0.34653955    -0.17020000
opls_145-25    C    0.31405013    0.68354978    0.77511864    -0.16480000
opls_700-26    C    0.47746006    0.95689979    0.83453955    -0.02960000
opls_166-27    C    0.51775006    0.98835978    0.71855932    0.24400000
opls_145-28    C    0.52803993    0.02988980    0.73703955    -0.25460000
opls_700-29    C    0.50071991    0.04248977    0.86478814    -0.03300000
opls_166-30    C    0.46078000    0.01268987    0.96705932    0.24980000
opls_145-31    C    0.44903000    0.96886995    0.94900000    -0.21000000
opls_181-32    C    0.40621996    0.02719988    0.93181073    -0.19760000
opls_181-33    C    0.55162003    0.94669984    0.60759887    -0.18890000
opls_142-34    C    0.51527016    0.08698005    0.90314972    0.07180000
opls_142-35    C    0.46393014    0.91229978    0.85805932    0.07170000
opls_145-36    C    0.40977020    0.84062990    0.83666949    0.19410000
opls_145-37    C    0.57299998    0.15415006    0.10948870    0.19700000
opls_145-38    C    0.61165014    0.17091010    0.27424011    -0.16720000
opls_145-39    C    0.63634998    0.21318999    0.31813842    -0.19010000
opls_700-40    C    0.62402983    0.24089980    0.20305085    0.06220000
opls_145-41    C    0.58397992    0.22373005    0.04481921    -0.16460000
opls_145-42    C    0.55873012    0.18080990    0.99629944    -0.19030000
opls_145-43    C    0.36879006    0.81515993    0.94465819    -0.16780000
opls_145-44    C    0.35191005    0.77247978    0.96512994    -0.12960000
opls_700-45    C    0.37526001    0.75395981    0.86394068    0.06880000
opls_145-46    C    0.41649999    0.77962980    0.75381073    -0.12980000
opls_145-47    C    0.43366986    0.82253972    0.74235876    -0.17920000
opls_700-48    C    0.65087997    0.28678994    0.27812994    0.02380000
opls_700-49    C    0.35596989    0.70809976    0.86351977    0.06970000
opls_145-50    C    0.62962010    0.30737005    0.38272034    -0.16910000
opls_145-51    C    0.31745013    0.62159984    0.88053955    -0.16650000
opls_700-52    C    0.04561009    0.53002998    0.68092090    -0.04500000
opls_166-53    C    0.01791008    0.54381993    0.59839831    0.26820000
opls_145-54    C    0.97333014    0.51691001    0.67737006    -0.20480000
opls_700-55    C    0.95789998    0.47654976    0.80885028    -0.03160000
opls_166-56    C    0.98548024    0.46124002    0.84857062    0.27290000
opls_145-57    C    0.03010988    0.48941978    0.80107910    -0.21840000
opls_181-58    C    0.94597018    0.38734001    0.77316949    -0.19450000
opls_181-59    C    0.03295009    0.61318998    0.60246045    -0.19100000
opls_142-60    C    0.91366003    0.45065975    0.90851977    0.07000000
opls_142-61    C    0.09067008    0.55879979    0.66324011    0.07400000
opls_145-62    C    0.16070020    0.57008002    0.70011017    0.19400000
opls_145-63    C    0.84599005    0.43984988    0.05464972    0.19260000
opls_145-64    C    0.81660997    0.45057987    0.94487853    -0.18450000
opls_145-65    C    0.77431983    0.42320981    0.00627119    -0.14500000
opls_700-66    C    0.76040010    0.38467987    0.18598023    0.06230000
opls_145-67    C    0.79062997    0.37657995    0.31901977    -0.19010000
opls_145-68    C    0.83234991    0.40293986    0.25255932    -0.16060000
opls_145-69    C    0.18465011    0.55254997    0.59676836    -0.17080000
opls_145-70    C    0.22773992    0.57526980    0.62202825    -0.13060000
opls_700-71    C    0.24787022    0.61593001    0.76089831    0.06870000
opls_145-72    C    0.22345996    0.63300986    0.87304802    -0.13040000
opls_145-73    C    0.18052008    0.61053990    0.84088983    -0.16780000
opls_700-74    C    0.71511009    0.35497996    0.26174859    0.02380000
opls_700-75    C    0.29381004    0.64047993    0.80205932    0.06830000
opls_700-76    C    0.69532011    0.31043009    0.22962994    0.07400000
opls_145-77    C    0.37870006    0.68864994    0.95450847    -0.16710000
opls_149-78    C    0.71775998    0.29114010    0.02107910    -0.25330000
pls_224B-79    C    0.73867004    0.26641000    0.19046045    0.04410000
opls_229-80    C    0.75128995    0.21263982    0.95722034    0.16070000
opls_235-81    C    0.78243014    0.28134997    0.10529944    0.44330000
opls_139-82    C    0.74119013    0.16687012    0.12724011    0.21340000
opls_135-83    C    0.69644999    0.14859010    0.30944068    -0.44550000
opls_135-84    C    0.78284996    0.17592006    0.31048023    -0.44590000
opls_135-85    C    0.73159003    0.12439989    0.93948870    -0.44550000
opls_243-86    C    0.83362997    0.26352987    0.90978814    -0.29110000
opls_179-87    O    0.58415996    0.55644992    0.55092938    -0.19290000
opls_179-88    O    0.42255986    0.44020989    0.11822881    -0.21620000
opls_179-89    O    0.43531989    0.02363990    0.16325989    -0.17560000
opls_179-90    O    0.54878007    0.98268982    0.55066102    -0.20010000
opls_179-91    O    0.97376000    0.42216992    0.99446045    -0.18360000
opls_179-92    O    0.03126996    0.58012984    0.39329096    -0.17400000
opls_236-93    O    0.80881007    0.31758989    0.09316949    -0.37840000
opls_750-94    N    0.45966997    0.56843984    0.18492090    -0.33070000
opls_750-95    N    0.55073009    0.43091992    0.38033051    -0.33100000
opls_750-96    N    0.42561010    0.88434970    0.81194915    -0.33710000
opls_750-97    N    0.55099013    0.11035013    0.05307910    -0.34910000
opls_750-98    N    0.11651000    0.54516993    0.68185028    -0.33300000
opls_750-99    N    0.88877009    0.46523001    0.94767797    -0.32970000
opls_901-100    N    0.71912001    0.22287003    0.07564972    -0.42220000
opls_239-101    N    0.79126994    0.25089994    0.03824859    -0.14780000
opls_146-102    H    0.47998996    0.42422001    0.26944068    0.11640000
opls_146-103    H    0.52739991    0.57293978    0.38516102    0.11580000
opls_185-104    H    0.63128008    0.59144004    0.17414124    0.07360000
opls_185-105    H    0.60955015    0.53650997    0.12038983    0.09000000
opls_185-106    H    0.64233997    0.56257975    0.51337006    0.08910000
opls_185-107    H    0.37373006    0.40583992    0.48142090    0.08910000
opls_185-108    H    0.36580994    0.43741996    0.14942938    0.07350000
opls_185-109    H    0.39817995    0.46079992    0.55279944    0.07350000
opls_144-110    H    0.58878000    0.48740984    0.62489831    0.10160000
opls_144-111    H    0.41695006    0.50861992    0.05290960    0.11540000
opls_146-112    H    0.52751010    0.35475998    0.18012994    0.11840000
opls_146-113    H    0.56788015    0.32049007    0.16757062    0.12110000
opls_146-114    H    0.67008994    0.42789992    0.68122881    0.11830000
opls_146-115    H    0.63062996    0.46308978    0.65713842    0.12180000
opls_146-116    H    0.48456999    0.64394982    0.92694068    0.11500000
opls_146-117    H    0.44320993    0.67651974    0.81605932    0.11820000
opls_146-118    H    0.33598013    0.56740003    0.24181921    0.12160000
opls_146-119    H    0.37719000    0.53429995    0.32088983    0.11830000
opls_146-120    H    0.70576990    0.40635977    0.35940960    0.11800000
opls_146-121    H    0.29692989    0.69817978    0.68350847    0.11800000
opls_146-122    H    0.55864008    0.05319997    0.64837853    0.11360000
opls_146-123    H    0.41861018    0.94620988    0.04635876    0.11370000
opls_185-124    H    0.38797997    0.99876990    0.76187006    0.08400000
opls_185-125    H    0.42213000    0.05469004    0.74809040    0.07380000
opls_185-126    H    0.38462014    0.03135986    0.11538983    0.08910000
opls_185-127    H    0.58097000    0.95183978    0.48381073    0.07350000
opls_185-128    H    0.52605988    0.91956980    0.46813842    0.07860000
opls_185-129    H    0.55337012    0.94108978    0.90598023    0.11220000
opls_144-130    H    0.49641000    0.09936005    0.80598023    0.10070000
opls_144-131    H    0.48499997    0.90268991    0.95233898    0.10600000
opls_146-132    H    0.62227004    0.15068998    0.37626836    0.12100000
opls_146-133    H    0.66491988    0.22376992    0.44766949    0.24780000
opls_146-134    H    0.57211991    0.24331992    0.95301130    0.12230000
opls_146-135    H    0.52874006    0.16898986    0.86707062    0.12130000
opls_146-136    H    0.35000993    0.82853977    0.01944915    0.11850000
opls_146-137    H    0.32054020    0.75393992    0.06402825    0.11710000
opls_146-138    H    0.43523013    0.76654994    0.66696045    0.11370000
opls_146-139    H    0.46512998    0.84133980    0.64768079    0.12150000
opls_146-140    H    0.59705991    0.28945995    0.44348023    0.12220000
opls_146-141    H    0.30230018    0.58839992    0.88700847    0.11920000
opls_146-142    H    0.95270005    0.52879977    0.62687853    0.11580000
opls_146-143    H    0.05082999    0.47813994    0.87092938    0.11680000
opls_185-144    H    0.92087009    0.36455984    0.95490960    0.07260000
opls_185-145    H    0.96279996    0.37261002    0.65515819    0.07300000
opls_185-146    H    0.93142998    0.39546985    0.54370904    0.09720000
opls_185-147    H    0.03858007    0.63849987    0.40644068    0.07300000
opls_185-148    H    0.05937001    0.62517973    0.79955932    0.07460000
opls_185-149    H    0.00366008    0.60366999    0.75515819    0.07400000
opls_144-150    H    0.90173011    0.41830997    0.94716949    0.10520000
opls_144-151    H    0.10173992    0.59157985    0.64672034    0.10180000
opls_146-152    H    0.82621014    0.47908993    0.79437853    0.11890000
opls_146-153    H    0.75257998    0.43163982    0.89811017    0.12180000
opls_146-154    H    0.78276003    0.34952986    0.47333898    0.24750000
opls_146-155    H    0.85388017    0.39441996    0.36542938    0.11830000
opls_146-156    H    0.16983985    0.52127979    0.49083898    0.11890000
opls_146-157    H    0.24518006    0.56108998    0.52746045    0.11820000
opls_146-158    H    0.23742020    0.66338995    0.99868927    0.11670000
opls_146-159    H    0.16292000    0.62433977    0.94074011    0.12080000
opls_146-160    H    0.41059996    0.70748976    0.03727966    0.12320000
opls_702-161    H    0.74112019    0.31573011    0.85618927    0.11080000
opls_702-162    H    0.69471988    0.27130001    0.81950000    0.11960000
opls_140-163    H    0.73826013    0.26707988    0.48692090    0.10890000
opls_910-164    H    0.69725981    0.21507989    0.86661017    0.28110000
opls_140-165    H    0.75045998    0.21184999    0.65863842    0.11310000
opls_140-166    H    0.67726998    0.11520000    0.36416949    0.10390000
opls_140-167    H    0.67538007    0.14895998    0.09470904    0.13220000
opls_140-168    H    0.69256004    0.16560001    0.53505932    0.12220000
opls_140-169    H    0.80479010    0.18388005    0.07879096    0.11830000
opls_140-170    H    0.78738993    0.15053985    0.39953107    0.13520000
opls_140-171    H    0.79711995    0.20099996    0.50761864    0.11520000
opls_140-172    H    0.72571018    0.10270999    0.17776836    0.10530000
opls_140-173    H    0.75630003    0.11998993    0.83304802    0.11970000
opls_140-174    H    0.70208994    0.10470997    0.80407062    0.11940000
opls_140-175    H    0.83626999    0.26778987    0.60720904    0.11620000
opls_140-176    H    0.84541996    0.24343978    0.00035028    0.13060000
opls_140-177    H    0.85650996    0.29390974    0.02824859    0.14040000
