#======================================================================
# Crystal Data Generated By AuToFF
#----------------------------------------------------------------------

data_AuToFF_phase_1

_cell_length_a                         30.9794
_cell_length_b                         32.4058
_cell_length_c                         5.2703
_cell_angle_alpha                      90.00
_cell_angle_beta                       90.00
_cell_angle_gamma                      90.00
_symmetry_space_group_name_H-M_alt     'P 1'
_symmetry_space_group_IT_number        1

loop_
_space_group_symop_operation_xyz
   'x, y, z'

loop_
   _atom_site_label
   _atom_site_type_symbol
   _atom_site_fract_x
   _atom_site_fract_y
   _atom_site_fract_z
   _atom_site_charge
opls_142-0    C    0.83210004    0.20862994    0.51457033    0.01580000
opls_145-1    C    0.89335010    0.12380006    0.23928998    -0.11960000
opls_145-2    C    0.93166007    0.10155003    0.26969053    -0.11950000
opls_916-3    C    0.96050989    0.11153003    0.46565091    0.21240000
opls_145-4    C    0.95077987    0.14455992    0.62778969    -0.11960000
opls_145-5    C    0.91253995    0.16678990    0.59732084    -0.11970000
opls_145-6    C    0.88346998    0.15642015    0.40306055    0.25700000
opls_145-7    C    0.61995003    0.34881009    0.55157012    0.24410000
opls_142-8    C    0.67029994    0.29539002    0.44335996    0.01580000
opls_700-9    C    0.71224007    0.27432003    0.46688993    -0.03030000
opls_145-10    C    0.71990000    0.24145986    0.30154071    -0.15950000
opls_166-11    C    0.75883006    0.21907992    0.30677001    0.29020000
opls_700-12    C    0.79062990    0.23033006    0.48568013    -0.03100000
opls_166-13    C    0.74411996    0.28565997    0.64513975    0.28970000
opls_145-14    C    0.78293995    0.26316986    0.65112043    -0.15950000
opls_916-15    C    0.54042009    0.39058008    0.52026071    0.21290000
opls_145-16    C    0.54680013    0.35347006    0.38823027    -0.11970000
opls_145-17    C    0.58621988    0.33272994    0.40350075    -0.11970000
opls_145-18    C    0.57432003    0.40663986    0.66686906    -0.11970000
opls_145-19    C    0.61370007    0.38578989    0.68309963    -0.09920000
opls_145-20    C    0.96110996    0.02153997    0.50078933    -0.11970000
opls_145-21    C    0.50004003    0.52158009    0.72700985    -0.10030000
opls_181-22    C    0.73253000    0.17626999    0.96821054    -0.15340000
opls_181-23    C    0.77043003    0.32839985    0.98412045    -0.15340000
opls_142-24    C    0.16789996    0.79137006    0.51457033    0.01580000
opls_145-25    C    0.10664990    0.87619994    0.23928998    -0.11960000
opls_145-26    C    0.06833993    0.89844997    0.26969053    -0.11950000
opls_916-27    C    0.03949011    0.88846997    0.46565091    0.21240000
opls_145-28    C    0.04922013    0.85544008    0.62778969    -0.11960000
opls_145-29    C    0.08746005    0.83321010    0.59732084    -0.11970000
opls_145-30    C    0.11653002    0.84357985    0.40306055    0.25700000
opls_145-31    C    0.38004997    0.65118991    0.55157012    0.24410000
opls_142-32    C    0.32970006    0.70460998    0.44335996    0.01580000
opls_700-33    C    0.28775993    0.72567997    0.46688993    -0.03030000
opls_145-34    C    0.28010000    0.75854014    0.30154071    -0.15950000
opls_166-35    C    0.24116994    0.78092008    0.30677001    0.29010000
opls_700-36    C    0.20937010    0.76966994    0.48568013    -0.03100000
opls_166-37    C    0.25588004    0.71434003    0.64513975    0.28960000
opls_145-38    C    0.21706005    0.73683014    0.65112043    -0.15950000
opls_916-39    C    0.45957991    0.60941992    0.52026071    0.21290000
opls_145-40    C    0.45319987    0.64652994    0.38823027    -0.11970000
opls_145-41    C    0.41378012    0.66727006    0.40350075    -0.11970000
opls_145-42    C    0.42567997    0.59336014    0.66686906    -0.11970000
opls_145-43    C    0.38629993    0.61421011    0.68309963    -0.09920000
opls_145-44    C    0.03889004    0.97846003    0.50078933    -0.11970000
opls_145-45    C    0.49995997    0.47841991    0.72700985    -0.10030000
opls_181-46    C    0.26747000    0.82373001    0.96821054    -0.15340000
opls_181-47    C    0.22956997    0.67160015    0.98412045    -0.15340000
opls_142-48    C    0.16789996    0.20862994    0.48542967    0.01580000
opls_145-49    C    0.10664990    0.12380006    0.76071002    -0.11960000
opls_145-50    C    0.06833993    0.10155003    0.73030947    -0.11950000
opls_916-51    C    0.03949011    0.11153003    0.53434909    0.21240000
opls_145-52    C    0.04922013    0.14455992    0.37221031    -0.11960000
opls_145-53    C    0.08746005    0.16678990    0.40267916    -0.11970000
opls_145-54    C    0.11653002    0.15642015    0.59693945    0.25700000
opls_145-55    C    0.38004997    0.34881009    0.44842988    0.24410000
opls_142-56    C    0.32970006    0.29539002    0.55664004    0.01580000
opls_700-57    C    0.28775993    0.27432003    0.53311007    -0.03030000
opls_145-58    C    0.28010000    0.24145986    0.69845929    -0.15950000
opls_166-59    C    0.24116994    0.21907992    0.69322999    0.29010000
opls_700-60    C    0.20937010    0.23033006    0.51431987    -0.03100000
opls_166-61    C    0.25588004    0.28565997    0.35486025    0.28970000
opls_145-62    C    0.21706005    0.26316986    0.34887957    -0.15950000
opls_916-63    C    0.45957991    0.39058008    0.47973929    0.21290000
opls_145-64    C    0.45319987    0.35347006    0.61176973    -0.11970000
opls_145-65    C    0.41378012    0.33272994    0.59649925    -0.11970000
opls_145-66    C    0.42567997    0.40663986    0.33313094    -0.11970000
opls_145-67    C    0.38629993    0.38578989    0.31690037    -0.09920000
opls_145-68    C    0.03889004    0.02153997    0.49921067    -0.11960000
opls_145-69    C    0.49995997    0.52158009    0.27299015    -0.10030000
opls_181-70    C    0.26747000    0.17626999    0.03178946    -0.15330000
opls_181-71    C    0.22956997    0.32839985    0.01587955    -0.15340000
opls_142-72    C    0.83210004    0.79137006    0.48542967    0.01580000
opls_145-73    C    0.89335010    0.87619994    0.76071002    -0.11960000
opls_145-74    C    0.93166007    0.89844997    0.73030947    -0.11950000
opls_916-75    C    0.96050989    0.88846997    0.53434909    0.21240000
opls_145-76    C    0.95077987    0.85544008    0.37221031    -0.11960000
opls_145-77    C    0.91253995    0.83321010    0.40267916    -0.11970000
opls_145-78    C    0.88346998    0.84357985    0.59693945    0.25700000
opls_145-79    C    0.61995003    0.65118991    0.44842988    0.24410000
opls_142-80    C    0.67029994    0.70460998    0.55664004    0.01580000
opls_700-81    C    0.71224007    0.72567997    0.53311007    -0.03030000
opls_145-82    C    0.71990000    0.75854014    0.69845929    -0.15950000
opls_166-83    C    0.75883006    0.78092008    0.69322999    0.29010000
opls_700-84    C    0.79062990    0.76966994    0.51431987    -0.03100000
opls_166-85    C    0.74411996    0.71434003    0.35486025    0.28970000
opls_145-86    C    0.78293995    0.73683014    0.34887957    -0.15950000
opls_916-87    C    0.54042009    0.60941992    0.47973929    0.21310000
opls_145-88    C    0.54680013    0.64652994    0.61176973    -0.11970000
opls_145-89    C    0.58621988    0.66727006    0.59649925    -0.11970000
opls_145-90    C    0.57432003    0.59336014    0.33313094    -0.11970000
opls_145-91    C    0.61370007    0.61421011    0.31690037    -0.09910000
opls_145-92    C    0.96110996    0.97846003    0.49921067    -0.11970000
opls_145-93    C    0.50004003    0.47841991    0.27299015    -0.10030000
opls_181-94    C    0.73253000    0.82373001    0.03178946    -0.15340000
opls_181-95    C    0.77043003    0.67160015    0.01587955    -0.15340000
opls_916-96    C    1.00000000    0.04379000    0.50000000    0.21060000
opls_916-97    C    1.00000000    0.95621000    0.50000000    0.21070000
opls_916-98    C    0.50000000    0.54336014    0.50000000    0.22510000
opls_916-99    C    0.50000000    0.45663986    0.50000000    0.22510000
opls_750-100    N    0.66072003    0.32826994    0.57151965    -0.25270000
opls_750-101    N    0.84348987    0.17799993    0.37140011    -0.25260000
opls_750-102    N    0.33927997    0.67173006    0.57151965    -0.25270000
opls_750-103    N    0.15651013    0.82200007    0.37140011    -0.25270000
opls_750-104    N    0.33927997    0.32826994    0.42848035    -0.25270000
opls_750-105    N    0.15651013    0.17799993    0.62859989    -0.25270000
opls_750-106    N    0.66072003    0.67173006    0.42848035    -0.25270000
opls_750-107    N    0.84348987    0.82200007    0.62859989    -0.25260000
opls_239-108    N    0.50000000    0.58760993    0.50000000    -0.10040000
opls_239-109    N    0.50000000    0.41239007    0.50000000    -0.10040000
opls_239-110    N    1.00000000    0.08859001    0.50000000    -0.10790000
opls_239-111    N    1.00000000    0.91140999    0.50000000    -0.10790000
opls_179-112    O    0.76656004    0.81404008    0.86010094    -0.15680000
opls_179-113    O    0.73630993    0.68139993    0.18672941    -0.15530000
opls_179-114    O    0.23343996    0.18595992    0.86010094    -0.15680000
opls_179-115    O    0.26369007    0.31860007    0.18672941    -0.15530000
opls_179-116    O    0.23343996    0.81404008    0.13989906    -0.15680000
opls_179-117    O    0.26369007    0.68139993    0.81327059    -0.15530000
opls_179-118    O    0.76656004    0.18595992    0.13989906    -0.15680000
opls_179-119    O    0.73630993    0.31860007    0.81327059    -0.15520000
opls_146-120    H    0.69427006    0.23210999    0.15737055    0.05360000
opls_146-121    H    0.80849016    0.27239013    0.79611028    0.05360000
opls_146-122    H    0.51968986    0.34006011    0.26744018    0.05360000
opls_146-123    H    0.59112991    0.30261003    0.29551069    0.05360000
opls_146-124    H    0.56983996    0.43691006    0.77384969    0.05360000
opls_146-125    H    0.64094011    0.39891995    0.80406998    0.05360000
opls_146-126    H    0.92924008    0.03913003    0.50274937    0.05360000
opls_146-127    H    0.50015010    0.53888995    0.91534068    -0.08490000
opls_185-128    H    0.72760996    0.14140987    0.96281047    0.07360000
opls_185-129    H    0.74124999    0.18779015    0.77036981    0.07360000
opls_185-130    H    0.70149002    0.19184004    0.03404930    0.07360000
opls_185-131    H    0.79723009    0.34507989    0.87707910    0.07360000
opls_185-132    H    0.78374985    0.29876997    0.07051970    0.07360000
opls_185-133    H    0.75761990    0.34920014    0.14148910    0.07360000
opls_144-134    H    0.85580999    0.21860994    0.66818967    0.03160000
opls_146-135    H    0.86998005    0.11540002    0.08036924    0.05360000
opls_146-136    H    0.93961988    0.07511001    0.13487088    0.05360000
opls_146-137    H    0.97417994    0.15339013    0.78568013    0.05360000
opls_146-138    H    0.90478996    0.19351011    0.73044988    0.05360000
opls_144-139    H    0.64474005    0.28284998    0.30821016    0.03160000
opls_146-140    H    0.30572994    0.76789001    0.15737055    0.05360000
opls_146-141    H    0.19150984    0.72760987    0.79611028    0.05360000
opls_146-142    H    0.48031014    0.65993989    0.26744018    0.05360000
opls_146-143    H    0.40887009    0.69738997    0.29551069    0.05360000
opls_146-144    H    0.43016004    0.56308994    0.77384969    0.05360000
opls_146-145    H    0.35905989    0.60108005    0.80406998    0.05360000
opls_146-146    H    0.07075992    0.96086997    0.50274937    0.05360000
opls_146-147    H    0.49984990    0.46111005    0.91534068    -0.08490000
opls_185-148    H    0.27239004    0.85859013    0.96281047    0.07360000
opls_185-149    H    0.25875001    0.81220985    0.77036981    0.07360000
opls_185-150    H    0.29850998    0.80815996    0.03404930    0.07360000
opls_185-151    H    0.20276991    0.65492011    0.87707910    0.07360000
opls_185-152    H    0.21625015    0.70123003    0.07051970    0.07360000
opls_185-153    H    0.24238010    0.65079986    0.14148910    0.07360000
opls_144-154    H    0.14419001    0.78139006    0.66818967    0.03160000
opls_146-155    H    0.13001995    0.88459998    0.08036924    0.05360000
opls_146-156    H    0.06038012    0.92488999    0.13487088    0.05360000
opls_146-157    H    0.02582006    0.84660987    0.78568013    0.05370000
opls_146-158    H    0.09521004    0.80648989    0.73044988    0.05360000
opls_144-159    H    0.35525995    0.71715002    0.30821016    0.03160000
opls_146-160    H    0.30572994    0.23210999    0.84262945    0.05360000
opls_146-161    H    0.19150984    0.27239013    0.20388972    0.05360000
opls_146-162    H    0.48031014    0.34006011    0.73255982    0.05360000
opls_146-163    H    0.40887009    0.30261003    0.70448931    0.05360000
opls_146-164    H    0.43016004    0.43691006    0.22615031    0.05360000
opls_146-165    H    0.35905989    0.39891995    0.19593002    0.05360000
opls_146-166    H    0.07075992    0.03913003    0.49725063    0.05360000
opls_146-167    H    0.49984990    0.53888995    0.08465932    -0.08490000
opls_185-168    H    0.27239004    0.14140987    0.03718953    0.07360000
opls_185-169    H    0.25875001    0.18779015    0.22963019    0.07360000
opls_185-170    H    0.29850998    0.19184004    0.96595070    0.07370000
opls_185-171    H    0.20276991    0.34507989    0.12292090    0.07360000
opls_185-172    H    0.21625015    0.29876997    0.92948030    0.07360000
opls_185-173    H    0.24238010    0.34920014    0.85851090    0.07360000
opls_144-174    H    0.14419001    0.21860994    0.33181033    0.03160000
opls_146-175    H    0.13001995    0.11540002    0.91963076    0.05360000
opls_146-176    H    0.06038012    0.07511001    0.86512912    0.05360000
opls_146-177    H    0.02582006    0.15339013    0.21431987    0.05360000
opls_146-178    H    0.09521004    0.19351011    0.26955012    0.05360000
opls_144-179    H    0.35525995    0.28284998    0.69178984    0.03160000
opls_146-180    H    0.69427006    0.76789001    0.84262945    0.05360000
opls_146-181    H    0.80849016    0.72760987    0.20388972    0.05360000
opls_146-182    H    0.51968986    0.65993989    0.73255982    0.05360000
opls_146-183    H    0.59112991    0.69738997    0.70448931    0.05360000
opls_146-184    H    0.56983996    0.56308994    0.22615031    0.05360000
opls_146-185    H    0.64094011    0.60108005    0.19593002    0.05360000
opls_146-186    H    0.92924008    0.96086997    0.49725063    0.05370000
opls_146-187    H    0.50015010    0.46111005    0.08465932    -0.08490000
opls_185-188    H    0.72760996    0.85859013    0.03718953    0.07360000
opls_185-189    H    0.74124999    0.81220985    0.22963019    0.07360000
opls_185-190    H    0.70149002    0.80815996    0.96595070    0.07360000
opls_185-191    H    0.79723009    0.65492011    0.12292090    0.07360000
opls_185-192    H    0.78374985    0.70123003    0.92948030    0.07360000
opls_185-193    H    0.75761990    0.65079986    0.85851090    0.07360000
opls_144-194    H    0.85580999    0.78139006    0.33181033    0.03160000
opls_146-195    H    0.86998005    0.88459998    0.91963076    0.05360000
opls_146-196    H    0.93961988    0.92488999    0.86512912    0.05360000
opls_146-197    H    0.97417994    0.84660987    0.21431987    0.05360000
opls_146-198    H    0.90478996    0.80648989    0.26955012    0.05360000
opls_144-199    H    0.64474005    0.71715002    0.69178984    0.03160000
