#======================================================================
# Crystal Data Generated By AuToFF
#----------------------------------------------------------------------

data_AuToFF_phase_1

_cell_length_a                         43.2600
_cell_length_b                         43.2600
_cell_length_c                         3.4400
_cell_angle_alpha                      90.00
_cell_angle_beta                       90.00
_cell_angle_gamma                      120.00
_symmetry_space_group_name_H-M_alt     'P 1'
_symmetry_space_group_IT_number        1

loop_
_space_group_symop_operation_xyz
   'x, y, z'

loop_
   _atom_site_label
   _atom_site_type_symbol
   _atom_site_fract_x
   _atom_site_fract_y
   _atom_site_fract_z
   _atom_site_charge
opls_641-0    N    0.64529998    0.29901004    0.00000000    -0.55470000
opls_750-1    N    0.61977005    0.11013003    0.00000000    -0.37720000
opls_641-2    N    0.70098992    0.34627989    0.00000000    -0.55470000
opls_750-3    N    0.88986986    0.50963985    0.00000000    -0.37720000
opls_641-4    N    0.65372005    0.35469992    0.00000000    -0.55480000
opls_750-5    N    0.49036009    0.38023012    0.00000000    -0.37720000
opls_641-6    N    0.35470002    0.70098996    0.00000000    -0.55470000
opls_750-7    N    0.38022995    0.88986997    0.00000000    -0.37720000
opls_641-8    N    0.29902002    0.65372011    0.00000000    -0.55480000
opls_750-9    N    0.11013001    0.49035988    0.00000000    -0.37720000
opls_641-10    N    0.34627995    0.64530008    0.00000000    -0.55480000
opls_750-11    N    0.50963991    0.61976988    0.00000000    -0.37720000
opls_642-12    C    0.68045999    0.31133005    0.00000000    0.51960000
opls_166-13    C    0.68080010    0.25524006    0.00000000    0.24800000
opls_145-14    C    0.64360010    0.23415997    0.00000000    -0.24100000
opls_145-15    C    0.62680007    0.19822012    0.00000000    -0.21280000
opls_700-16    C    0.64566001    0.17925991    0.00000000    0.05630000
opls_145-17    C    0.68335988    0.19926992    0.00000000    -0.15060000
opls_145-18    C    0.70068994    0.23728001    0.00000000    -0.21950000
opls_142-19    C    0.62187006    0.14233005    0.00000000    0.10030000
opls_145-20    C    0.92060005    0.50712012    0.00000000    0.09090000
opls_145-21    C    0.92111008    0.47413001    0.00000000    -0.22130000
opls_145-22    C    0.95156006    0.47182008    0.00000000    -0.21320000
opls_700-23    C    0.98502985    0.50252988    0.00000000    0.07310000
opls_145-24    C    0.98544002    0.53592998    0.00000000    -0.20690000
opls_166-25    C    0.95427994    0.53838005    0.00000000    0.19260000
opls_642-26    C    0.68866992    0.36912994    0.00000000    0.51960000
opls_166-27    C    0.74475988    0.42555999    0.00000000    0.24710000
opls_145-28    C    0.76584002    0.40944009    0.00000000    -0.24100000
opls_145-29    C    0.80177994    0.42857006    0.00000000    -0.21280000
opls_700-30    C    0.82074992    0.46639998    0.00000000    0.05380000
opls_145-31    C    0.80072988    0.48408990    0.00000000    -0.14680000
opls_145-32    C    0.76271999    0.46340993    0.00000000    -0.21950000
opls_142-33    C    0.85767004    0.47953009    0.00000000    0.10030000
opls_145-34    C    0.49287997    0.41347006    0.00000000    0.09090000
opls_145-35    C    0.52586996    0.44697987    0.00000000    -0.22130000
opls_145-36    C    0.52817993    0.47973989    0.00000000    -0.21320000
opls_700-37    C    0.49746999    0.48249985    0.00000000    0.07310000
opls_145-38    C    0.46406986    0.44949987    0.00000000    -0.20690000
opls_166-39    C    0.46161996    0.41590011    0.00000000    0.18810000
opls_642-40    C    0.63087010    0.31954001    0.00000000    0.51960000
opls_166-41    C    0.57444001    0.31919995    0.00000000    0.24710000
opls_145-42    C    0.59055989    0.35639994    0.00000000    -0.24100000
opls_145-43    C    0.57143007    0.37319995    0.00000000    -0.21280000
opls_700-44    C    0.53360001    0.35434011    0.00000000    0.05630000
opls_145-45    C    0.51590988    0.31663991    0.00000000    -0.15060000
opls_145-46    C    0.53659008    0.29931006    0.00000000    -0.21950000
opls_142-47    C    0.52046998    0.37812998    0.00000000    0.10030000
opls_145-48    C    0.58653007    0.07939994    0.00000000    0.09120000
opls_145-49    C    0.55301996    0.07889012    0.00000000    -0.22120000
opls_145-50    C    0.52026001    0.04844003    0.00000000    -0.21310000
opls_700-51    C    0.51749988    0.01497988    0.00000000    0.07310000
opls_145-52    C    0.55050007    0.01456001    0.00000000    -0.20690000
opls_166-53    C    0.58411017    0.04572011    0.00000000    0.18810000
opls_642-54    C    0.31954001    0.68866995    0.00000000    0.51960000
opls_166-55    C    0.31919990    0.74475994    0.00000000    0.24710000
opls_145-56    C    0.35639990    0.76584003    0.00000000    -0.24100000
opls_145-57    C    0.37319993    0.80177988    0.00000000    -0.21330000
opls_700-58    C    0.35434008    0.82074996    0.00000000    0.05630000
opls_145-59    C    0.31664012    0.80073008    0.00000000    -0.15070000
opls_145-60    C    0.29931006    0.76271999    0.00000000    -0.21950000
opls_142-61    C    0.37812994    0.85766995    0.00000000    0.10030000
opls_145-62    C    0.07939995    0.49287988    0.00000000    0.09090000
opls_145-63    C    0.07888992    0.52586999    0.00000000    -0.22130000
opls_145-64    C    0.04843994    0.52817992    0.00000000    -0.21310000
opls_700-65    C    0.01497996    0.49746986    0.00000000    0.07480000
opls_145-66    C    0.01455998    0.46407002    0.00000000    -0.20690000
opls_166-67    C    0.04572006    0.46161995    0.00000000    0.19260000
opls_642-68    C    0.31133008    0.63087006    0.00000000    0.51960000
opls_166-69    C    0.25524012    0.57444001    0.00000000    0.24800000
opls_145-70    C    0.23415998    0.59055991    0.00000000    -0.24100000
opls_145-71    C    0.19822006    0.57142994    0.00000000    -0.21280000
opls_700-72    C    0.17926002    0.53360002    0.00000000    0.05380000
opls_145-73    C    0.19927012    0.51591010    0.00000000    -0.15060000
opls_145-74    C    0.23728001    0.53659007    0.00000000    -0.21950000
opls_142-75    C    0.14233011    0.52046003    0.00000000    0.10030000
opls_145-76    C    0.50712003    0.58652994    0.00000000    0.09090000
opls_145-77    C    0.47412990    0.55301986    0.00000000    -0.22120000
opls_145-78    C    0.47183001    0.52026011    0.00000000    -0.21320000
opls_700-79    C    0.50252987    0.51749988    0.00000000    0.07480000
opls_145-80    C    0.53593001    0.55049986    0.00000000    -0.20690000
opls_166-81    C    0.53838004    0.58409989    0.00000000    0.18810000
opls_642-82    C    0.36912990    0.68045999    0.00000000    0.51960000
opls_166-83    C    0.42556993    0.68080005    0.00000000    0.24710000
opls_145-84    C    0.40944011    0.64360006    0.00000000    -0.24100000
opls_145-85    C    0.42858010    0.62680005    0.00000000    -0.21280000
opls_700-86    C    0.46639999    0.64565989    0.00000000    0.05630000
opls_145-87    C    0.48409012    0.68336009    0.00000000    -0.15060000
opls_145-88    C    0.46340992    0.70068994    0.00000000    -0.22240000
opls_142-89    C    0.47953996    0.62187002    0.00000000    0.10020000
opls_145-90    C    0.41346993    0.92060006    0.00000000    0.09090000
opls_145-91    C    0.44698004    0.92110988    0.00000000    -0.22130000
opls_145-92    C    0.47973999    0.95155997    0.00000000    -0.21320000
opls_700-93    C    0.48249997    0.98503000    0.00000000    0.07480000
opls_145-94    C    0.44951010    0.98543999    0.00000000    -0.20690000
opls_166-95    C    0.41590000    0.95427989    0.00000000    0.18810000
opls_180-96    O    0.59469985    0.30332989    0.00000000    -0.33570000
opls_167-97    O    0.61333007    0.04187004    0.00000000    -0.46650000
opls_180-98    O    0.69666994    0.29138010    0.00000000    -0.33570000
opls_167-99    O    0.95812996    0.57146011    0.00000000    -0.48550000
opls_180-100    O    0.70862983    0.40529988    0.00000000    -0.33570000
opls_167-101    O    0.42854010    0.38667012    0.00000000    -0.48540000
opls_180-102    O    0.40530015    0.69667011    0.00000000    -0.33670000
opls_167-103    O    0.38666993    0.95812996    0.00000000    -0.48540000
opls_180-104    O    0.30333004    0.70863004    0.00000000    -0.33570000
opls_167-105    O    0.04187004    0.42853989    0.00000000    -0.48540000
opls_180-106    O    0.29137998    0.59469986    0.00000000    -0.33570000
opls_167-107    O    0.57145990    0.61332988    0.00000000    -0.48540000
opls_168-108    H    0.63707991    0.06332996    0.00000000    0.31020000
opls_146-109    H    0.69785989    0.18649000    0.00000000    0.21750000
opls_146-110    H    0.59927999    0.18621000    0.00000000    0.21740000
opls_146-111    H    0.62588004    0.24242999    0.00000000    0.21790000
opls_146-112    H    0.72788000    0.25218995    0.00000000    0.21750000
opls_146-113    H    0.55190001    0.99187999    0.00000000    0.21780000
opls_146-114    H    0.49888007    0.05227008    0.00000000    0.21770000
opls_146-115    H    0.54930997    0.10026996    0.00000000    0.21780000
opls_144-116    H    0.40201008    0.86115007    0.00000000    0.10230000
opls_168-117    H    0.93666997    0.57375002    0.00000000    0.31020000
opls_146-118    H    0.81351003    0.51137004    0.00000000    0.21750000
opls_146-119    H    0.81378994    0.41306995    0.00000000    0.21780000
opls_146-120    H    0.75756988    0.38344999    0.00000000    0.21790000
opls_146-121    H    0.74781004    0.47568990    0.00000000    0.21750000
opls_146-122    H    0.00811997    0.56001987    0.00000000    0.21800000
opls_146-123    H    0.94773006    0.44660992    0.00000000    0.21770000
opls_146-124    H    0.89972988    0.44903997    0.00000000    0.21780000
opls_144-125    H    0.13885002    0.54086001    0.00000000    0.10230000
opls_168-126    H    0.42625012    0.36292002    0.00000000    0.31520000
opls_146-127    H    0.48863007    0.30215010    0.00000000    0.21750000
opls_146-128    H    0.58694000    0.40072005    0.00000000    0.21750000
opls_146-129    H    0.61655007    0.37412003    0.00000000    0.21790000
opls_146-130    H    0.52430983    0.27211988    0.00000000    0.21750000
opls_146-131    H    0.43997989    0.44809987    0.00000000    0.21780000
opls_146-132    H    0.55339010    0.50112000    0.00000000    0.21770000
opls_146-133    H    0.55095992    0.45069007    0.00000000    0.21780000
opls_144-134    H    0.45915006    0.59800007    0.00000000    0.10230000
opls_168-135    H    0.36292009    0.93667004    0.00000000    0.31020000
opls_146-136    H    0.30215005    0.81351000    0.00000000    0.21750000
opls_146-137    H    0.40072001    0.81379000    0.00000000    0.21750000
opls_146-138    H    0.37411996    0.75757001    0.00000000    0.21790000
opls_146-139    H    0.27212000    0.74781005    0.00000000    0.21750000
opls_146-140    H    0.44809999    0.00812001    0.00000000    0.21800000
opls_146-141    H    0.50111993    0.94772992    0.00000000    0.21770000
opls_146-142    H    0.45069003    0.89973004    0.00000000    0.21780000
opls_144-143    H    0.59799986    0.13884993    0.00000000    0.10230000
opls_168-144    H    0.06333003    0.42624998    0.00000000    0.31020000
opls_146-145    H    0.18648997    0.48862996    0.00000000    0.21750000
opls_146-146    H    0.18621006    0.58693005    0.00000000    0.21780000
opls_146-147    H    0.24243012    0.61655001    0.00000000    0.21790000
opls_146-148    H    0.25218996    0.52431010    0.00000000    0.21750000
opls_146-149    H    0.99187990    0.43997986    0.00000000    0.21800000
opls_146-150    H    0.05226994    0.55339008    0.00000000    0.21770000
opls_146-151    H    0.10027012    0.55096003    0.00000000    0.21780000
opls_144-152    H    0.86114998    0.45913999    0.00000000    0.10230000
opls_168-153    H    0.57374988    0.63707998    0.00000000    0.31520000
opls_146-154    H    0.51136992    0.69786004    0.00000000    0.21750000
opls_146-155    H    0.41306994    0.59927995    0.00000000    0.21750000
opls_146-156    H    0.38344993    0.62587997    0.00000000    0.21790000
opls_146-157    H    0.47568981    0.72787985    0.00000000    0.21750000
opls_146-158    H    0.56001997    0.55189986    0.00000000    0.21780000
opls_146-159    H    0.44660990    0.49888000    0.00000000    0.21750000
opls_146-160    H    0.44904008    0.54930993    0.00000000    0.21780000
opls_144-161    H    0.54085988    0.40199993    0.00000000    0.10230000
