#======================================================================
# Crystal Data Generated By AuToFF
#----------------------------------------------------------------------

data_AuToFF_phase_1

_cell_length_a                         26.5574
_cell_length_b                         26.5574
_cell_length_c                         3.8114
_cell_angle_alpha                      90.00
_cell_angle_beta                       90.00
_cell_angle_gamma                      120.00
_symmetry_space_group_name_H-M_alt     'P 1'
_symmetry_space_group_IT_number        1

loop_
_space_group_symop_operation_xyz
   'x, y, z'

loop_
   _atom_site_label
   _atom_site_type_symbol
   _atom_site_fract_x
   _atom_site_fract_y
   _atom_site_fract_z
   _atom_site_charge
opls_145-0    C    0.27640017    0.62037020    0.18733011    -0.20260000
opls_166-1    C    0.32227981    0.60880989    0.19997114    0.41130000
opls_166-2    C    0.18407031    0.65506027    0.28353886    0.40970000
opls_145-3    C    0.14322999    0.67005024    0.16775988    -0.14830000
opls_145-4    C    0.08414014    0.63463015    0.24191898    -0.14060000
opls_145-5    C    0.06444003    0.58306007    0.43145039    0.22250000
opls_145-6    C    0.10549025    0.56934013    0.56602036    -0.12010000
opls_145-7    C    0.16477995    0.60597025    0.50139057    -0.14240000
opls_531-8    C    0.63888989    0.27411000    0.72756992    0.38820000
opls_700-9    C    0.60115022    0.39130011    0.71238915    0.00190000
opls_523-10    C    0.62787982    0.45132999    0.77780081    -0.08280000
opls_145-11    C    0.59623990    0.48023990    0.74873013    -0.08450000
opls_700-12    C    0.53745992    0.44986995    0.65145091    0.07150000
opls_145-13    C    0.51039986    0.38971007    0.59083014    -0.08280000
opls_523-14    C    0.54190016    0.36070016    0.62217033    -0.08280000
opls_142-15    C    0.50562995    0.48179994    0.60813874    0.01540000
opls_145-16    C    0.37963014    0.65603029    0.18733011    -0.20260000
opls_166-17    C    0.39119023    0.71347010    0.19997114    0.41130000
opls_166-18    C    0.34493979    0.52900991    0.28353886    0.40970000
opls_145-19    C    0.32995012    0.47318015    0.16775988    -0.14830000
opls_145-20    C    0.36537002    0.44950994    0.24191898    -0.14060000
opls_145-21    C    0.41693990    0.48137993    0.43145039    0.22250000
opls_145-22    C    0.43065987    0.53615010    0.56602036    -0.12010000
opls_145-23    C    0.39403007    0.55881028    0.50139057    -0.14240000
opls_531-24    C    0.72589003    0.36477983    0.72756992    0.38820000
opls_700-25    C    0.60869984    0.20985000    0.71238915    0.00190000
opls_523-26    C    0.54866983    0.17654998    0.77780081    -0.08280000
opls_145-27    C    0.51976023    0.11600008    0.74873013    -0.08450000
opls_700-28    C    0.55013005    0.08759019    0.65145091    0.07140000
opls_145-29    C    0.61029013    0.12069021    0.59083014    -0.08280000
opls_523-30    C    0.63930022    0.18120010    0.62217033    -0.08290000
opls_142-31    C    0.51819998    0.02383021    0.60813874    0.01540000
opls_145-32    C    0.34396991    0.72359994    0.18733011    -0.20260000
opls_166-33    C    0.28652996    0.67772001    0.19997114    0.41130000
opls_166-34    C    0.47099012    0.81593026    0.28353886    0.40970000
opls_145-35    C    0.52682011    0.85677005    0.16775988    -0.14830000
opls_145-36    C    0.55048984    0.91585991    0.24191898    -0.14080000
opls_145-37    C    0.51862007    0.93556000    0.43145039    0.22250000
opls_145-38    C    0.46385010    0.89451020    0.56602036    -0.12010000
opls_145-39    C    0.44118982    0.83521991    0.50139057    -0.14240000
opls_531-40    C    0.63522007    0.36111017    0.72756992    0.38810000
opls_700-41    C    0.79014994    0.39884988    0.71238915    0.00190000
opls_523-42    C    0.82344997    0.37212003    0.77780081    -0.08280000
opls_145-43    C    0.88399987    0.40376001    0.74873013    -0.08450000
opls_700-44    C    0.91241003    0.46253986    0.65145091    0.07140000
opls_145-45    C    0.87931023    0.48960015    0.59083014    -0.08280000
opls_523-46    C    0.81880021    0.45810017    0.62217033    -0.08280000
opls_142-47    C    0.97617028    0.49437028    0.60813874    0.01540000
opls_180-48    O    0.24265001    0.69297998    0.19090098    -0.18610000
opls_180-49    O    0.30702002    0.54967003    0.19090098    -0.18610000
opls_180-50    O    0.45032997    0.75734998    0.19090098    -0.18610000
opls_750-51    N    0.00302007    0.54748998    0.49186126    -0.28650000
opls_520-52    N    0.60785982    0.30210988    0.72706092    -0.40430000
opls_750-53    N    0.45250994    0.45553011    0.49186126    -0.28640000
opls_520-54    N    0.69788994    0.30574998    0.72706092    -0.40430000
opls_750-55    N    0.54446999    0.99697992    0.49186126    -0.28640000
opls_520-56    N    0.69425024    0.39214014    0.72706092    -0.40430000
opls_146-57    H    0.22916997    0.58259005    0.16614892    0.04580000
opls_146-58    H    0.15824013    0.71204006    0.00935089    0.04560000
opls_146-59    H    0.05112996    0.64775007    0.14696962    0.04580000
opls_146-60    H    0.09023991    0.52783988    0.72980007    0.04570000
opls_146-61    H    0.19844984    0.59623999    0.62639975    0.04570000
opls_526-62    H    0.67621029    0.47705025    0.85603978    0.04580000
opls_146-63    H    0.61842000    0.52937992    0.80481975    0.04580000
opls_146-64    H    0.46197003    0.36401025    0.51477935    0.04580000
opls_526-65    H    0.51934014    0.31131013    0.57399118    0.04580000
opls_144-66    H    0.52781011    0.53047995    0.67758042    0.03160000
opls_146-67    H    0.41740993    0.64658004    0.16614892    0.04580000
opls_146-68    H    0.28795982    0.44619985    0.00935089    0.04570000
opls_146-69    H    0.35224992    0.40338000    0.14696962    0.04580000
opls_146-70    H    0.47215993    0.56239994    0.72980007    0.04570000
opls_146-71    H    0.40376008    0.60221015    0.62639975    0.04570000
opls_526-72    H    0.52295021    0.19916015    0.85603978    0.04580000
opls_146-73    H    0.47062018    0.08904023    0.80481975    0.04580000
opls_146-74    H    0.63599004    0.09796003    0.51477935    0.04580000
opls_526-75    H    0.68869006    0.20802996    0.57399118    0.04580000
opls_144-76    H    0.46951979    0.99732993    0.67758042    0.03160000
opls_146-77    H    0.35342011    0.77082991    0.16614892    0.04570000
opls_146-78    H    0.55380006    0.84176008    0.00935089    0.04570000
opls_146-79    H    0.59662012    0.94886993    0.14696962    0.04580000
opls_146-80    H    0.43760016    0.90976018    0.72980007    0.04570000
opls_146-81    H    0.39779030    0.80155030    0.62639975    0.04570000
opls_526-82    H    0.80084009    0.32379003    0.85603978    0.04580000
opls_146-83    H    0.91095982    0.38157985    0.80481975    0.04580000
opls_146-84    H    0.90204015    0.53803016    0.51477935    0.04580000
opls_526-85    H    0.79196980    0.48065991    0.57399118    0.04580000
opls_144-86    H    0.00267010    0.47219012    0.67758042    0.03160000
