#======================================================================
# Crystal Data Generated By AuToFF
#----------------------------------------------------------------------

data_AuToFF_phase_1

_cell_length_a                         35.5280
_cell_length_b                         35.5280
_cell_length_c                         3.3980
_cell_angle_alpha                      90.00
_cell_angle_beta                       90.00
_cell_angle_gamma                      120.00
_symmetry_space_group_name_H-M_alt     'P 1'
_symmetry_space_group_IT_number        1

loop_
_space_group_symop_operation_xyz
   'x, y, z'

loop_
   _atom_site_label
   _atom_site_type_symbol
   _atom_site_fract_x
   _atom_site_fract_y
   _atom_site_fract_z
   _atom_site_charge
opls_146-0    H    0.03992994    0.58095986    0.00000000    0.12210000
opls_146-1    H    0.41904003    0.45897007    0.00000000    0.12210000
opls_146-2    H    0.54103003    0.96007007    0.00000000    0.12210000
opls_146-3    H    0.96007006    0.41904014    0.00000000    0.12210000
opls_146-4    H    0.58095997    0.54102993    0.00000000    0.12210000
opls_146-5    H    0.45896997    0.03992993    0.00000000    0.12210000
opls_146-6    H    0.58095995    0.03992993    0.00000000    0.12210000
opls_146-7    H    0.45897008    0.41904014    0.00000000    0.12210000
opls_146-8    H    0.96006996    0.54102993    0.00000000    0.12210000
opls_146-9    H    0.41904005    0.96007007    0.00000000    0.12210000
opls_146-10    H    0.54102992    0.58095986    0.00000000    0.12210000
opls_146-11    H    0.03993004    0.45897007    0.00000000    0.12210000
opls_146-12    H    0.20248993    0.67173002    0.00000000    0.12210000
opls_146-13    H    0.32827006    0.53075989    0.00000000    0.12210000
opls_146-14    H    0.46924001    0.79751009    0.00000000    0.12210000
opls_146-15    H    0.79751007    0.32826998    0.00000000    0.12210000
opls_146-16    H    0.67172994    0.46924011    0.00000000    0.12210000
opls_146-17    H    0.53075999    0.20248991    0.00000000    0.12210000
opls_146-18    H    0.67172993    0.20248991    0.00000000    0.12210000
opls_146-19    H    0.53075991    0.32826998    0.00000000    0.12210000
opls_146-20    H    0.79751017    0.46924011    0.00000000    0.12210000
opls_146-21    H    0.32827007    0.79751009    0.00000000    0.12210000
opls_146-22    H    0.46924009    0.67173002    0.00000000    0.12210000
opls_146-23    H    0.20248983    0.53075989    0.00000000    0.12210000
opls_145-24    C    0.02280015    0.54563014    0.00000000    -0.04120000
opls_145-25    C    0.45437004    0.47717006    0.00000000    -0.04780000
opls_145-26    C    0.52282997    0.97720012    0.00000000    -0.04120000
opls_145-27    C    0.97719985    0.45436986    0.00000000    -0.04780000
opls_145-28    C    0.54562996    0.52282994    0.00000000    -0.04120000
opls_145-29    C    0.47717003    0.02279988    0.00000000    -0.04780000
opls_145-30    C    0.54562984    0.02279988    0.00000000    -0.04120000
opls_145-31    C    0.47717001    0.45436986    0.00000000    -0.04780000
opls_145-32    C    0.97719998    0.52282994    0.00000000    -0.04120000
opls_145-33    C    0.45437016    0.97720012    0.00000000    -0.04780000
opls_145-34    C    0.52282999    0.54563014    0.00000000    -0.04120000
opls_145-35    C    0.02280002    0.47717006    0.00000000    -0.04780000
opls_166-36    C    0.16443011    0.60164001    0.00000000    0.18350000
opls_166-37    C    0.39835998    0.56279009    0.00000000    0.18350000
opls_166-38    C    0.43720991    0.83556990    0.00000000    0.18350000
opls_166-39    C    0.83556989    0.39835999    0.00000000    0.18350000
opls_166-40    C    0.60164002    0.43720991    0.00000000    0.18350000
opls_166-41    C    0.56279009    0.16443010    0.00000000    0.18350000
opls_166-42    C    0.60164001    0.16443010    0.00000000    0.18350000
opls_166-43    C    0.56279011    0.39835999    0.00000000    0.18350000
opls_166-44    C    0.83556988    0.43720991    0.00000000    0.18350000
opls_166-45    C    0.39835999    0.83556990    0.00000000    0.18350000
opls_166-46    C    0.43720989    0.60164001    0.00000000    0.18350000
opls_166-47    C    0.16443012    0.56279009    0.00000000    0.18350000
opls_145-48    C    0.20322982    0.64151988    0.00000000    -0.25450000
opls_145-49    C    0.35848001    0.56171008    0.00000000    -0.25450000
opls_145-50    C    0.43828988    0.79677004    0.00000000    -0.25450000
opls_145-51    C    0.79677018    0.35848012    0.00000000    -0.25450000
opls_145-52    C    0.64151999    0.43828992    0.00000000    -0.25450000
opls_145-53    C    0.56171012    0.20322996    0.00000000    -0.25450000
opls_145-54    C    0.64151985    0.20322996    0.00000000    -0.25450000
opls_145-55    C    0.56170994    0.35848012    0.00000000    -0.25450000
opls_145-56    C    0.79676993    0.43828992    0.00000000    -0.25450000
opls_145-57    C    0.35848015    0.79677004    0.00000000    -0.25450000
opls_145-58    C    0.43829006    0.64151988    0.00000000    -0.25440000
opls_145-59    C    0.20323007    0.56171008    0.00000000    -0.25450000
opls_700-60    C    0.24298010    0.64154003    0.00000000    0.07450000
opls_700-61    C    0.35846016    0.60144013    0.00000000    0.07450000
opls_700-62    C    0.39856018    0.75702017    0.00000000    0.07450000
opls_700-63    C    0.75701990    0.35845997    0.00000000    0.07450000
opls_700-64    C    0.64153984    0.39855987    0.00000000    0.07450000
opls_700-65    C    0.60143998    0.24298016    0.00000000    0.07450000
opls_700-66    C    0.64154018    0.24298016    0.00000000    0.07450000
opls_700-67    C    0.60144007    0.35845997    0.00000000    0.07450000
opls_700-68    C    0.75702003    0.39855987    0.00000000    0.07450000
opls_700-69    C    0.35845998    0.75702017    0.00000000    0.07450000
opls_700-70    C    0.39855993    0.64154003    0.00000000    0.07450000
opls_700-71    C    0.24297997    0.60144013    0.00000000    0.07450000
opls_261-72    C    0.28329988    0.68266990    0.00000000    -0.08150000
opls_261-73    C    0.31732997    0.60062987    0.00000000    -0.08150000
opls_261-74    C    0.39936999    0.71669990    0.00000000    -0.08150000
opls_261-75    C    0.71670012    0.31733010    0.00000000    -0.08150000
opls_261-76    C    0.68267003    0.39937013    0.00000000    -0.08150000
opls_261-77    C    0.60063001    0.28330010    0.00000000    -0.08150000
opls_261-78    C    0.68267009    0.28330010    0.00000000    -0.08150000
opls_261-79    C    0.60062998    0.31733010    0.00000000    -0.08150000
opls_261-80    C    0.71670009    0.39937013    0.00000000    -0.08150000
opls_261-81    C    0.31732991    0.71669990    0.00000000    -0.08150000
opls_261-82    C    0.39937002    0.68266990    0.00000000    -0.08150000
opls_261-83    C    0.28329991    0.60062987    0.00000000    -0.08150000
opls_145-84    C    0.04583006    0.52291997    0.00000000    -0.22330000
opls_145-85    C    0.47708991    0.52291997    0.00000000    -0.22350000
opls_145-86    C    0.47709014    0.95417014    0.00000000    -0.22350000
opls_145-87    C    0.95416991    0.47709011    0.00000000    -0.22350000
opls_145-88    C    0.52292019    0.47709011    0.00000000    -0.22350000
opls_145-89    C    0.52292000    0.04582986    0.00000000    -0.22340000
opls_167-90    O    0.12285006    0.59610994    0.00000000    -0.32020000
opls_167-91    O    0.40388995    0.52674015    0.00000000    -0.32020000
opls_167-92    O    0.47325999    0.87714991    0.00000000    -0.32010000
opls_167-93    O    0.87714994    0.40389006    0.00000000    -0.32020000
opls_167-94    O    0.59611005    0.47325985    0.00000000    -0.32020000
opls_167-95    O    0.52674001    0.12285009    0.00000000    -0.32020000
opls_167-96    O    0.59611008    0.12285009    0.00000000    -0.32010000
opls_167-97    O    0.52674012    0.40389006    0.00000000    -0.32020000
opls_167-98    O    0.87714980    0.47325985    0.00000000    -0.32020000
opls_167-99    O    0.40388992    0.87714991    0.00000000    -0.32020000
opls_167-100    O    0.47325988    0.59610994    0.00000000    -0.32020000
opls_167-101    O    0.12285020    0.52674015    0.00000000    -0.32020000
MOF2_B_2-102    B    0.09679001    0.54839989    0.00000000    0.62040000
MOF2_B_2-103    B    0.45160987    0.54839989    0.00000000    0.62040000
MOF2_B_2-104    B    0.45161005    0.90320998    0.00000000    0.62040000
MOF2_B_2-105    B    0.90320980    0.45160986    0.00000000    0.62040000
MOF2_B_2-106    B    0.54840007    0.45160986    0.00000000    0.62040000
MOF2_B_2-107    B    0.54840008    0.09679002    0.00000000    0.62040000
