#======================================================================
# Crystal Data Generated By AuToFF
#----------------------------------------------------------------------

data_AuToFF_phase_1

_cell_length_a                         33.7160
_cell_length_b                         53.9692
_cell_length_c                         3.4000
_cell_angle_alpha                      90.00
_cell_angle_beta                       90.00
_cell_angle_gamma                      89.38
_symmetry_space_group_name_H-M_alt     'P 1'
_symmetry_space_group_IT_number        1

loop_
_space_group_symop_operation_xyz
   'x, y, z'

loop_
   _atom_site_label
   _atom_site_type_symbol
   _atom_site_fract_x
   _atom_site_fract_y
   _atom_site_fract_z
   _atom_site_charge
opls_700-0    C    0.47870998    0.52307996    0.48777941    0.03660000
opls_700-1    C    0.52136007    0.52276996    0.48682059    0.03650000
opls_145-2    C    0.54161002    0.54583000    0.50995000    -0.22830000
opls_166-3    C    0.52026990    0.56785995    0.53217059    0.19300000
opls_166-4    C    0.47989984    0.56812994    0.53605000    0.19300000
opls_145-5    C    0.45852005    0.54639999    0.51635882    -0.22060000
opls_700-6    C    0.45752988    0.50039997    0.46290882    0.03660000
opls_700-7    C    0.47879994    0.47717001    0.45432941    0.03650000
opls_145-8    C    0.41523009    0.50008996    0.44365000    -0.22060000
opls_166-9    C    0.39549002    0.47775000    0.42370882    0.19300000
opls_166-10    C    0.41561003    0.45574988    0.41857059    0.19300000
opls_145-11    C    0.45665009    0.45481003    0.43149118    -0.22060000
opls_700-12    C    0.54245982    0.49974994    0.46875882    0.03660000
opls_700-13    C    0.52110009    0.47683998    0.46292941    0.03660000
opls_145-14    C    0.54317984    0.45410996    0.46377059    -0.22830000
opls_166-15    C    0.58424982    0.45440997    0.45914118    0.19300000
opls_166-16    C    0.60445994    0.47609989    0.45389118    0.19300000
opls_145-17    C    0.58479005    0.49875987    0.45832059    -0.21810000
opls_700-18    C    0.47908995    0.80068995    0.80052059    0.03660000
opls_700-19    C    0.52172985    0.80041997    0.79325882    0.03650000
opls_145-20    C    0.54191984    0.77707993    0.76625000    -0.22830000
opls_166-21    C    0.52054005    0.75534998    0.74812941    0.19300000
opls_166-22    C    0.48016998    0.75561997    0.75202941    0.19300000
opls_145-23    C    0.45883004    0.77763991    0.77582941    -0.22830000
opls_700-24    C    0.45797979    0.82365994    0.82945000    0.03660000
opls_700-25    C    0.47927006    0.84658990    0.83394118    0.03660000
opls_145-26    C    0.41571980    0.82454994    0.85685000    -0.22830000
opls_166-27    C    0.39602989    0.84714989    0.88057941    0.19300000
opls_166-28    C    0.41616000    0.86887001    0.88185000    0.19300000
opls_145-29    C    0.45717979    0.86925989    0.86102941    -0.21810000
opls_700-30    C    0.54288003    0.82314999    0.80725000    0.03660000
opls_700-31    C    0.52153989    0.84634994    0.81719118    0.03630000
opls_145-32    C    0.54361990    0.86876995    0.81210000    -0.22830000
opls_166-33    C    0.58468985    0.86791997    0.80882941    0.19300000
opls_166-34    C    0.60489980    0.84594987    0.81019118    0.19300000
opls_145-35    C    0.58521991    0.82355988    0.80955000    -0.22060000
opls_700-36    C    0.02515987    0.29685004    0.40804118    0.03630000
opls_700-37    C    0.98254004    0.29716005    0.42257941    0.03650000
opls_145-38    C    0.96238999    0.27412002    0.45697059    -0.22060000
opls_166-39    C    0.98380985    0.25210989    0.47514118    0.19300000
opls_166-40    C    0.02415991    0.25182990    0.46434118    0.19300000
opls_145-41    C    0.04546009    0.27355003    0.43319118    -0.22830000
opls_700-42    C    0.04621990    0.31951002    0.37162941    0.03660000
opls_700-43    C    0.02492984    0.34272998    0.36687059    0.03650000
opls_145-44    C    0.08842999    0.31981002    0.33690882    -0.21810000
opls_166-45    C    0.10807995    0.34212997    0.30600882    0.19300000
opls_166-46    C    0.08793995    0.36411990    0.30447059    0.19300000
opls_145-47    C    0.04696983    0.36507995    0.33219118    -0.22830000
opls_700-48    C    0.96136986    0.32017006    0.40832941    0.03660000
opls_700-49    C    0.98269002    0.34307001    0.39082941    0.03660000
opls_145-50    C    0.96062006    0.36580003    0.39587059    -0.22830000
opls_166-51    C    0.91957008    0.36551003    0.40625882    0.19300000
opls_166-52    C    0.89935984    0.34380992    0.41205882    0.19300000
opls_145-53    C    0.91902985    0.32115994    0.41315000    -0.22300000
opls_700-54    C    0.02568992    0.01946001    0.77504118    0.03660000
opls_700-55    C    0.98305001    0.01972999    0.76870882    0.03650000
opls_145-56    C    0.96284999    0.04305001    0.73820000    -0.22830000
opls_166-57    C    0.98424004    0.06476996    0.71590882    0.19300000
opls_166-58    C    0.02459989    0.06448997    0.71894118    0.19300000
opls_145-59    C    0.04594009    0.04249003    0.74599118    -0.22830000
opls_700-60    C    0.04680982    0.99650984    0.80739118    0.03660000
opls_700-61    C    0.02551984    0.97357988    0.81625000    0.03660000
opls_145-62    C    0.08907006    0.99563985    0.83397941    -0.22060000
opls_166-63    C    0.10877000    0.97305992    0.86110000    0.19300000
opls_166-64    C    0.08862981    0.95133998    0.86650882    0.19300000
opls_145-65    C    0.04761998    0.95093991    0.84667941    -0.22830000
opls_700-66    C    0.96189996    0.99700997    0.78702941    0.03660000
opls_700-67    C    0.98323993    0.97381985    0.80042059    0.03660000
opls_145-68    C    0.96115979    0.95139001    0.79964118    -0.22060000
opls_166-69    C    0.92008997    0.95225000    0.79715000    0.19300000
opls_166-70    C    0.89987990    0.97420991    0.79524118    0.19300000
opls_145-71    C    0.91955991    0.99660991    0.79035882    -0.21810000
opls_145-72    C    0.50009000    0.69010992    0.67477941    -0.23390000
opls_145-73    C    0.46045995    0.67622990    0.66242059    -0.05060000
opls_716-74    C    0.53921987    0.64732989    0.62230000    0.11390000
opls_716-75    C    0.53925994    0.67560988    0.65452059    0.11390000
opls_145-76    C    0.46041984    0.64777998    0.62982059    -0.05060000
opls_145-77    C    0.50001995    0.63336000    0.60962059    -0.23390000
opls_567-78    C    0.81807992    0.38825988    0.42300882    -0.27690000
opls_567-79    C    0.68572990    0.43165993    0.44300882    -0.27690000
opls_567-80    C    0.75994986    0.42296002    0.43057059    -0.00120000
opls_567-81    C    0.74387004    0.39695998    0.43575882    -0.00120000
opls_716-82    C    0.77611003    0.37633999    0.43160882    -0.05660000
opls_716-83    C    0.72770987    0.44358001    0.43447941    -0.05650000
opls_567-84    C    0.18917996    0.38527004    0.27144118    -0.27690000
opls_567-85    C    0.31419999    0.43456991    0.35887941    -0.27690000
opls_567-86    C    0.26575011    0.39893993    0.31450882    -0.00120000
opls_567-87    C    0.23762996    0.42091003    0.31612941    -0.00120000
opls_716-88    C    0.19327007    0.41402996    0.29177941    -0.05650000
opls_716-89    C    0.31012009    0.40581999    0.33860882    -0.05670000
opls_567-90    C    0.81857999    0.93087990    0.79994118    -0.27690000
opls_567-91    C    0.68620000    0.88927988    0.80542059    -0.27680000
opls_567-92    C    0.76042996    0.89696989    0.80357059    -0.00120000
opls_567-93    C    0.74435004    0.92318989    0.80147941    -0.00120000
opls_716-94    C    0.77660987    0.94336997    0.79940882    -0.05660000
opls_716-95    C    0.72817991    0.87678999    0.80587059    -0.05660000
opls_567-96    C    0.19009993    0.94243994    0.07252941    -0.27910000
opls_567-97    C    0.31489984    0.89143994    0.96105000    -0.27690000
opls_567-98    C    0.26655995    0.92772996    0.01474118    -0.00120000
opls_567-99    C    0.23843982    0.90614992    0.01852941    -0.00120000
opls_716-100    C    0.19412998    0.91362999    0.05140882    -0.05660000
opls_716-101    C    0.31086979    0.92024989    0.98209118    -0.05690000
opls_145-102    C    0.00437012    0.13218991    0.62785882    -0.21310000
opls_145-103    C    0.04025010    0.14512007    0.60095000    -0.04840000
opls_145-104    C    0.96832988    0.17147997    0.58619118    -0.04910000
opls_145-105    C    0.96841000    0.14562002    0.62015000    -0.04840000
opls_145-106    C    0.04016998    0.17098003    0.56700000    -0.04840000
opls_145-107    C    0.00420986    0.18440994    0.55929118    -0.21300000
opls_167-108    O    0.46383988    0.59180000    0.56537059    -0.31870000
opls_167-109    O    0.53639994    0.59130987    0.55839118    -0.31860000
opls_167-110    O    0.39088009    0.43546992    0.39364118    -0.31870000
opls_167-111    O    0.35472004    0.47499994    0.40285882    -0.31870000
opls_167-112    O    0.64526008    0.47269998    0.44670882    -0.31870000
opls_167-113    O    0.60892001    0.43370992    0.45655882    -0.31870000
opls_167-114    O    0.46403994    0.73216986    0.72580000    -0.31870000
opls_167-115    O    0.53659988    0.73166992    0.71882059    -0.31870000
opls_167-116    O    0.39149992    0.88950001    0.91154118    -0.31870000
opls_167-117    O    0.35531007    0.85044992    0.90927059    -0.31870000
opls_167-118    O    0.64569979    0.84880000    0.80952059    -0.31870000
opls_167-119    O    0.60937984    0.88827999    0.80665882    -0.31870000
opls_167-120    O    0.04033994    0.22818004    0.49180000    -0.31870000
opls_167-121    O    0.96780005    0.22866998    0.51119118    -0.31850000
opls_167-122    O    0.11254993    0.38439004    0.26710882    -0.31870000
opls_167-123    O    0.14874011    0.34485001    0.26985000    -0.31870000
opls_167-124    O    0.85855982    0.34722002    0.41917059    -0.31870000
opls_167-125    O    0.89489011    0.38620989    0.40917059    -0.31870000
opls_167-126    O    0.04073011    0.08793006    0.68837059    -0.31870000
opls_167-127    O    0.96817005    0.08842000    0.68295000    -0.31860000
opls_167-128    O    0.11329992    0.93072999    0.89912941    -0.31870000
opls_167-129    O    0.14948995    0.96976989    0.88942059    -0.31870000
opls_167-130    O    0.85908003    0.97136997    0.79597941    -0.31870000
opls_167-131    O    0.89539985    0.93187998    0.79899118    -0.31870000
MOF2_B_2-132    B    0.50013993    0.60640992    0.57885000    0.63270000
MOF2_B_2-133    B    0.35216001    0.44798000    0.38435000    0.63040000
MOF2_B_2-134    B    0.64771994    0.44560999    0.44855882    0.63040000
MOF2_B_2-135    B    0.50029996    0.71707000    0.70534118    0.63270000
MOF2_B_2-136    B    0.35279984    0.87751989    0.92827941    0.63040000
MOF2_B_2-137    B    0.64817003    0.87584996    0.80719118    0.63040000
MOF2_B_2-138    B    0.00410985    0.21358995    0.52097941    0.62290000
MOF2_B_2-139    B    0.15120998    0.37186995    0.24584118    0.63040000
MOF2_B_2-140    B    0.85609996    0.37431001    0.41732941    0.63050000
MOF2_B_2-141    B    0.00446006    0.10300991    0.66617059    0.62290000
MOF2_B_2-142    B    0.15199983    0.94271993    0.91295000    0.63930000
MOF2_B_2-143    B    0.85660996    0.94431001    0.79830000    0.63040000
opls_146-144    H    0.57331991    0.54760000    0.51614118    0.10530000
opls_146-145    H    0.42681985    0.54858988    0.52922059    0.10390000
opls_146-146    H    0.39667995    0.51640003    0.43827941    0.10660000
opls_146-147    H    0.46968007    0.43657005    0.41862941    0.10530000
opls_146-148    H    0.53009004    0.43604991    0.46984118    0.10640000
opls_146-149    H    0.60345009    0.51477993    0.45142059    0.10390000
opls_146-150    H    0.57361991    0.77487985    0.75395000    0.10390000
opls_146-151    H    0.42711981    0.77588992    0.76907059    0.10530000
opls_146-152    H    0.39717985    0.80847985    0.86579118    0.10390000
opls_146-153    H    0.47022984    0.88731994    0.87139118    0.10660000
opls_146-154    H    0.53052983    0.88701994    0.80855000    0.10400000
opls_146-155    H    0.60387999    0.80729003    0.81285882    0.10530000
opls_146-156    H    0.93073005    0.27236002    0.47502059    0.10660000
opls_146-157    H    0.07717999    0.27136996    0.43485882    0.10530000
opls_146-158    H    0.10695006    0.30348995    0.32754118    0.10530000
opls_146-159    H    0.03389998    0.38330992    0.32099118    0.10660000
opls_146-160    H    0.97372007    0.38386990    0.39410000    0.10390000
opls_146-161    H    0.90037010    0.30514006    0.41577059    0.10530000
opls_146-162    H    0.93115988    0.04523991    0.72625000    0.10640000
opls_146-163    H    0.07766011    0.04424002    0.73820882    0.10390000
opls_146-164    H    0.10761980    0.01170995    0.83977941    0.10390000
opls_146-165    H    0.03455985    0.93287986    0.86039118    0.10390000
opls_146-166    H    0.97424999    0.93314985    0.79887941    0.10640000
opls_146-167    H    0.90090991    0.01287994    0.79132941    0.10640000
opls_146-168    H    0.43121008    0.68698999    0.67715882    0.04560000
opls_146-169    H    0.43116001    0.63741996    0.62070000    0.04560000
opls_570-170    H    0.77013005    0.35558991    0.43439118    0.04560000
opls_570-171    H    0.73368986    0.46432990    0.43155000    0.04560000
opls_570-172    H    0.16747003    0.42785995    0.28907059    0.04560000
opls_570-173    H    0.33591004    0.39199000    0.34117059    0.04560000
opls_570-174    H    0.77063005    0.96419991    0.79779118    0.04560000
opls_570-175    H    0.73414994    0.85595987    0.80765000    0.04560000
opls_570-176    H    0.16833986    0.90014985    0.05909118    0.04560000
opls_570-177    H    0.33665991    0.93372984    0.97457059    0.04560000
opls_146-178    H    0.06836991    0.13516993    0.60627059    0.12410000
opls_146-179    H    0.94036000    0.13604993    0.64047941    0.12410000
opls_146-180    H    0.06821998    0.18054993    0.54667059    0.12410000
opls_146-181    H    0.94020991    0.18143993    0.58087941    0.12330000
opls_750-182    N    0.58026003    0.63568998    0.60527059    -0.33370000
opls_750-183    N    0.58032992    0.68668999    0.66352059    -0.33380000
opls_202-184    S    0.61321981    0.66095993    0.63120000    0.48330000
opls_633-185    S    0.81302997    0.42181004    0.42094118    0.03810000
opls_633-186    S    0.69078993    0.39810996    0.44514118    0.03810000
opls_633-187    S    0.23810989    0.37086006    0.28392941    0.03810000
opls_633-188    S    0.26527006    0.44897989    0.34645000    0.03810000
opls_633-189    S    0.81350980    0.89739998    0.80299118    0.03810000
opls_633-190    S    0.69126990    0.92275999    0.80230882    0.03810000
opls_633-191    S    0.23899981    0.95617987    0.05062059    0.03810000
opls_633-192    S    0.26599996    0.87770001    0.98290000    0.03810000
