#======================================================================
# Crystal Data Generated By AuToFF
#----------------------------------------------------------------------

data_AuToFF_phase_1

_cell_length_a                         41.8950
_cell_length_b                         41.8950
_cell_length_c                         3.3700
_cell_angle_alpha                      90.00
_cell_angle_beta                       90.00
_cell_angle_gamma                      120.00
_symmetry_space_group_name_H-M_alt     'P 1'
_symmetry_space_group_IT_number        1

loop_
_space_group_symop_operation_xyz
   'x, y, z'

loop_
   _atom_site_label
   _atom_site_type_symbol
   _atom_site_fract_x
   _atom_site_fract_y
   _atom_site_fract_z
   _atom_site_charge
opls_140-0    H    0.62201987    0.63116995    0.21786944    0.15070000
opls_185-1    H    0.55734010    0.61173999    0.23262908    0.09790000
opls_140-2    H    0.36882996    0.99085004    0.21786944    0.15070000
opls_185-3    H    0.38826019    0.94560022    0.23262908    0.09790000
opls_140-4    H    0.00914993    0.37798001    0.21786944    0.15070000
opls_185-5    H    0.05440009    0.44266006    0.23262908    0.09790000
opls_140-6    H    0.37798013    0.36883005    0.21786944    0.15080000
opls_185-7    H    0.44265990    0.38826001    0.23262908    0.09790000
opls_140-8    H    0.63116999    0.00915988    0.21786944    0.15070000
opls_185-9    H    0.61173995    0.05440006    0.23262908    0.09790000
opls_140-10    H    0.99085007    0.62201999    0.21786944    0.15070000
opls_185-11    H    0.94559991    0.55733994    0.23262908    0.09790000
opls_140-12    H    0.37798013    0.36883005    0.78213056    0.15070000
opls_185-13    H    0.44265990    0.38826001    0.76737092    0.09790000
opls_140-14    H    0.63116999    0.00915988    0.78213056    0.15070000
opls_185-15    H    0.61173995    0.05440006    0.76737092    0.09790000
opls_140-16    H    0.99085007    0.62201999    0.78213056    0.15070000
opls_185-17    H    0.94559991    0.55733994    0.76737092    0.09790000
opls_140-18    H    0.62201987    0.63116995    0.78213056    0.15070000
opls_185-19    H    0.55734010    0.61173999    0.76737092    0.09790000
opls_140-20    H    0.36882996    0.99085004    0.78213056    0.15070000
opls_185-21    H    0.38826019    0.94560022    0.76737092    0.09800000
opls_140-22    H    0.00914993    0.37798001    0.78213056    0.15070000
opls_185-23    H    0.05440009    0.44266006    0.76737092    0.09790000
opls_146-24    H    0.49092999    0.71293003    0.00000000    0.22770000
opls_526-25    H    0.43721006    0.72030005    0.00000000    0.22780000
opls_526-26    H    0.36887010    0.60450999    0.00000000    0.22780000
opls_146-27    H    0.41904989    0.59724002    0.00000000    0.22770000
opls_146-28    H    0.43746002    0.48573995    0.00000000    0.22770000
opls_144-29    H    0.51806999    0.66726016    0.00000000    0.11070000
opls_910-30    H    0.52396991    0.61202002    0.00000000    0.25110000
opls_146-31    H    0.28706998    0.77800008    0.00000000    0.22770000
opls_526-32    H    0.27969999    0.71690995    0.00000000    0.22770000
opls_526-33    H    0.39548996    0.76436003    0.00000000    0.22780000
opls_146-34    H    0.40276015    0.82181008    0.00000000    0.22770000
opls_146-35    H    0.51426006    0.95172003    0.00000000    0.22770000
opls_144-36    H    0.33274010    0.85082022    0.00000000    0.11060000
opls_910-37    H    0.38798003    0.91195004    0.00000000    0.25110000
opls_146-38    H    0.22200009    0.50905997    0.00000000    0.22770000
opls_526-39    H    0.28308995    0.56279000    0.00000000    0.22770000
opls_526-40    H    0.23563994    0.63112998    0.00000000    0.22780000
opls_146-41    H    0.17819009    0.58095018    0.00000000    0.22770000
opls_146-42    H    0.04827991    0.56254002    0.00000000    0.22770000
opls_144-43    H    0.14918010    0.48193009    0.00000000    0.11150000
opls_910-44    H    0.08805006    0.47602994    0.00000000    0.25110000
opls_146-45    H    0.50905999    0.28706997    0.00000000    0.22770000
opls_526-46    H    0.56278994    0.27969995    0.00000000    0.22770000
opls_526-47    H    0.63112990    0.39549001    0.00000000    0.22780000
opls_146-48    H    0.58095011    0.40275998    0.00000000    0.22770000
opls_146-49    H    0.56253998    0.51426005    0.00000000    0.22770000
opls_144-50    H    0.48193015    0.33274011    0.00000000    0.11070000
opls_910-51    H    0.47603009    0.38797998    0.00000000    0.25110000
opls_146-52    H    0.71293002    0.22199992    0.00000000    0.22770000
opls_526-53    H    0.72030001    0.28309005    0.00000000    0.22770000
opls_526-54    H    0.60451004    0.23563997    0.00000000    0.22780000
opls_146-55    H    0.59723985    0.17818992    0.00000000    0.22770000
opls_146-56    H    0.48573994    0.04827997    0.00000000    0.22770000
opls_144-57    H    0.66726003    0.14918005    0.00000000    0.11060000
opls_910-58    H    0.61201997    0.08804996    0.00000000    0.25110000
opls_146-59    H    0.77799996    0.49093011    0.00000000    0.22770000
opls_526-60    H    0.71691005    0.43721000    0.00000000    0.22770000
opls_526-61    H    0.76436006    0.36887002    0.00000000    0.22780000
opls_146-62    H    0.82181005    0.41905009    0.00000000    0.22770000
opls_146-63    H    0.95172009    0.43745998    0.00000000    0.22770000
opls_144-64    H    0.85082003    0.51807019    0.00000000    0.11150000
opls_910-65    H    0.91194994    0.52397006    0.00000000    0.25110000
opls_140-66    H    0.61165010    0.66347014    0.00000000    0.11480000
opls_140-67    H    0.33653000    0.94819020    0.00000000    0.11260000
opls_140-68    H    0.05181011    0.38835013    0.00000000    0.10880000
opls_140-69    H    0.38835004    0.33653013    0.00000000    0.11480000
opls_140-70    H    0.66347014    0.05181008    0.00000000    0.11260000
opls_140-71    H    0.94819003    0.61165014    0.00000000    0.10880000
opls_145-72    C    0.46484014    0.49326018    0.00000000    -0.23290000
opls_166-73    C    0.46960992    0.46287994    0.00000000    0.19890000
opls_700-74    C    0.50666017    0.46983019    0.00000000    -0.16480000
opls_234-75    C    0.47874006    0.55594007    0.00000000    0.40060000
opls_182-76    C    0.43336999    0.39480014    0.00000000    0.05640000
opls_135-77    C    0.39329997    0.36475008    0.00000000    -0.43110000
opls_142-78    C    0.49093999    0.64722000    0.00000000    0.02910000
opls_700-79    C    0.53964999    0.34528017    0.00000000    0.05380000
opls_145-80    C    0.46512009    0.69023015    0.00000000    -0.20500000
opls_523-81    C    0.43386007    0.69438013    0.00000000    -0.20540000
opls_700-82    C    0.39837009    0.66301014    0.00000000    0.02140000
opls_523-83    C    0.39415005    0.62804995    0.00000000    -0.20500000
opls_145-84    C    0.42460010    0.62405019    0.00000000    -0.20550000
opls_531-85    C    0.36483997    0.66515003    0.00000000    0.33600000
opls_145-86    C    0.50674011    0.97158022    0.00000000    -0.23290000
opls_166-87    C    0.53712012    0.00673003    0.00000000    0.19890000
opls_700-88    C    0.53017009    0.03682998    0.00000000    -0.16480000
opls_234-89    C    0.44405999    0.92280001    0.00000000    0.40070000
opls_182-90    C    0.60520000    0.03856995    0.00000000    0.05640000
opls_135-91    C    0.63524999    0.02854987    0.00000000    -0.42990000
opls_142-92    C    0.35277994    0.84372004    0.00000000    0.02910000
opls_700-93    C    0.65472006    0.19437007    0.00000000    0.05380000
opls_145-94    C    0.30977010    0.77489001    0.00000000    -0.20500000
opls_523-95    C    0.30561994    0.73948001    0.00000000    -0.20540000
opls_700-96    C    0.33698998    0.73536008    0.00000000    0.02140000
opls_523-97    C    0.37195011    0.76610001    0.00000000    -0.20510000
opls_145-98    C    0.37594991    0.80055002    0.00000000    -0.20550000
opls_531-99    C    0.33484998    0.69969018    0.00000000    0.33600000
opls_145-100    C    0.02842003    0.53516015    0.00000000    -0.23290000
opls_166-101    C    0.99326996    0.53039003    0.00000000    0.19890000
opls_700-102    C    0.96317011    0.49334011    0.00000000    -0.16480000
opls_234-103    C    0.07720009    0.52126019    0.00000000    0.40060000
opls_182-104    C    0.96143014    0.56663018    0.00000000    0.05640000
opls_135-105    C    0.97145004    0.60670005    0.00000000    -0.43000000
opls_142-106    C    0.15628007    0.50905997    0.00000000    0.02910000
opls_700-107    C    0.80563009    0.46035004    0.00000000    0.05380000
opls_145-108    C    0.22510995    0.53488012    0.00000000    -0.20500000
opls_523-109    C    0.26052012    0.56614014    0.00000000    -0.20540000
opls_700-110    C    0.26464007    0.60163006    0.00000000    0.02140000
opls_523-111    C    0.23390008    0.60585004    0.00000000    -0.20500000
opls_145-112    C    0.19945012    0.57540007    0.00000000    -0.20550000
opls_531-113    C    0.30030995    0.63516006    0.00000000    0.33600000
opls_145-114    C    0.53516000    0.50674009    0.00000000    -0.23270000
opls_166-115    C    0.53039008    0.53712006    0.00000000    0.19890000
opls_700-116    C    0.49333997    0.53017009    0.00000000    -0.16480000
opls_234-117    C    0.52125994    0.44405993    0.00000000    0.40070000
opls_182-118    C    0.56663014    0.60520014    0.00000000    0.05640000
opls_135-119    C    0.60670016    0.63525019    0.00000000    -0.43110000
opls_142-120    C    0.50906001    0.35278000    0.00000000    0.02910000
opls_700-121    C    0.46035015    0.65472011    0.00000000    0.05380000
opls_145-122    C    0.53488005    0.30977013    0.00000000    -0.20500000
opls_523-123    C    0.56614007    0.30562015    0.00000000    -0.20540000
opls_700-124    C    0.60163005    0.33699014    0.00000000    0.02140000
opls_523-125    C    0.60584995    0.37195005    0.00000000    -0.20510000
opls_145-126    C    0.57540004    0.37595009    0.00000000    -0.20540000
opls_531-127    C    0.63516003    0.33484997    0.00000000    0.33600000
opls_145-128    C    0.49326003    0.02842005    0.00000000    -0.23290000
opls_166-129    C    0.46288002    0.99327024    0.00000000    0.19890000
opls_700-130    C    0.46982991    0.96317002    0.00000000    -0.16480000
opls_234-131    C    0.55594001    0.07719999    0.00000000    0.40060000
opls_182-132    C    0.39480000    0.96143005    0.00000000    0.05640000
opls_135-133    C    0.36475001    0.97145013    0.00000000    -0.43100000
opls_142-134    C    0.64722006    0.15627996    0.00000000    0.02910000
opls_700-135    C    0.34528008    0.80563021    0.00000000    0.05380000
opls_145-136    C    0.69022990    0.22510999    0.00000000    -0.20500000
opls_523-137    C    0.69438006    0.26051999    0.00000000    -0.20540000
opls_700-138    C    0.66301002    0.26463992    0.00000000    0.02140000
opls_523-139    C    0.62804989    0.23389999    0.00000000    -0.20510000
opls_145-140    C    0.62405009    0.19944998    0.00000000    -0.20550000
opls_531-141    C    0.66515016    0.30031010    0.00000000    0.33600000
opls_145-142    C    0.97158011    0.46484013    0.00000000    -0.23290000
opls_166-143    C    0.00673004    0.46960997    0.00000000    0.19890000
opls_700-144    C    0.03683002    0.50666017    0.00000000    -0.16480000
opls_234-145    C    0.92280005    0.47874008    0.00000000    0.40060000
opls_182-146    C    0.03857000    0.43337009    0.00000000    0.05640000
opls_135-147    C    0.02854996    0.39329995    0.00000000    -0.42990000
opls_142-148    C    0.84371993    0.49094003    0.00000000    0.02910000
opls_700-149    C    0.19436991    0.53964996    0.00000000    0.05380000
opls_145-150    C    0.77489019    0.46512016    0.00000000    -0.20500000
opls_523-151    C    0.73948002    0.43386014    0.00000000    -0.20540000
opls_700-152    C    0.73535993    0.39836994    0.00000000    0.02140000
opls_523-153    C    0.76609992    0.39414996    0.00000000    -0.20510000
opls_145-154    C    0.80054988    0.42459993    0.00000000    -0.20550000
opls_531-155    C    0.69969005    0.36483994    0.00000000    0.33600000
opls_179-156    O    0.56434017    0.57050013    0.00000000    -0.22190000
opls_236-157    O    0.44518011    0.54253017    0.00000000    -0.45720000
opls_179-158    O    0.42950013    0.99384022    0.00000000    -0.22180000
opls_236-159    O    0.45746996    0.90265015    0.00000000    -0.45710000
opls_179-160    O    0.00616007    0.43565992    0.00000000    -0.22190000
opls_236-161    O    0.09735007    0.55481996    0.00000000    -0.45720000
opls_179-162    O    0.43565996    0.42950014    0.00000000    -0.22190000
opls_236-163    O    0.55482003    0.45747011    0.00000000    -0.45720000
opls_179-164    O    0.57050001    0.00616006    0.00000000    -0.22180000
opls_236-165    O    0.54253018    0.09735013    0.00000000    -0.45720000
opls_179-166    O    0.99383993    0.56434008    0.00000000    -0.22190000
opls_236-167    O    0.90264993    0.44518004    0.00000000    -0.45720000
opls_238-168    N    0.50050989    0.59501000    0.00000000    -0.24670000
opls_750-169    N    0.52013008    0.38747009    0.00000000    -0.16610000
opls_520-170    N    0.36636008    0.69806017    0.00000000    -0.46520000
opls_238-171    N    0.40498990    0.90550004    0.00000000    -0.24660000
opls_750-172    N    0.61253006    0.13266007    0.00000000    -0.16620000
opls_520-173    N    0.30193999    0.66830007    0.00000000    -0.46520000
opls_238-174    N    0.09449997    0.49948997    0.00000000    -0.24670000
opls_750-175    N    0.86734000    0.47987012    0.00000000    -0.16620000
opls_520-176    N    0.33170007    0.63364003    0.00000000    -0.46510000
opls_238-177    N    0.49949011    0.40499000    0.00000000    -0.24670000
opls_750-178    N    0.47987006    0.61253019    0.00000000    -0.16620000
opls_520-179    N    0.63364006    0.30194010    0.00000000    -0.46520000
opls_238-180    N    0.59501010    0.09449996    0.00000000    -0.24670000
opls_750-181    N    0.38747008    0.86734020    0.00000000    -0.16610000
opls_520-182    N    0.69806001    0.33169993    0.00000000    -0.46520000
opls_238-183    N    0.90550003    0.50051003    0.00000000    -0.24660000
opls_750-184    N    0.13266014    0.52013016    0.00000000    -0.16620000
opls_520-185    N    0.66829993    0.36635997    0.00000000    -0.46520000
