#======================================================================
# Crystal Data Generated By AuToFF
#----------------------------------------------------------------------

data_AuToFF_phase_1

_cell_length_a                         15.2905
_cell_length_b                         15.2905
_cell_length_c                         3.4579
_cell_angle_alpha                      90.00
_cell_angle_beta                       90.00
_cell_angle_gamma                      120.00
_symmetry_space_group_name_H-M_alt     'P 1'
_symmetry_space_group_IT_number        1

loop_
_space_group_symop_operation_xyz
   'x, y, z'

loop_
   _atom_site_label
   _atom_site_type_symbol
   _atom_site_fract_x
   _atom_site_fract_y
   _atom_site_fract_z
   _atom_site_charge
MOF2_B_2-0    B    0.44040020    0.72020003    0.00000000    0.42570000
MOF2_B_2-1    B    0.27979983    0.72020003    0.00000000    0.42570000
MOF2_B_2-2    B    0.27979997    0.55959994    0.00000000    0.42570000
MOF2_H_-3    H    0.52720006    0.76359995    0.00000000    -0.16250000
MOF2_H_-4    H    0.23639989    0.76359995    0.00000000    -0.16250000
MOF2_H_-5    H    0.23640005    0.47280010    0.00000000    -0.16250000
opls_146-6    H    0.75909986    0.51819972    0.00000000    0.23680000
opls_146-7    H    0.48179993    0.24090014    0.00000000    0.23680000
opls_146-8    H    0.75910021    0.24090014    0.00000000    0.23680000
opls_146-9    H    0.40190008    0.31430015    0.00000000    0.09340000
opls_146-10    H    0.31509994    0.39990001    0.00000000    0.10340000
opls_146-11    H    0.68570003    0.08760033    0.00000000    0.09340000
opls_146-12    H    0.60010018    0.91519986    0.00000000    0.10340000
opls_146-13    H    0.91240026    0.59810028    0.00000000    0.09340000
opls_146-14    H    0.08479989    0.68490012    0.00000000    0.10340000
opls_146-15    H    0.68570002    0.59810028    0.00000000    0.09340000
opls_146-16    H    0.60010024    0.68490012    0.00000000    0.10340000
opls_146-17    H    0.91240007    0.31430015    0.00000000    0.09340000
opls_146-18    H    0.08480008    0.39990001    0.00000000    0.10340000
opls_146-19    H    0.40190029    0.08760033    0.00000000    0.09350000
opls_146-20    H    0.31509969    0.91519986    0.00000000    0.10340000
opls_145-21    C    0.56170013    0.28084966    0.00000000    -0.17670000
opls_145-22    C    0.71914953    0.28084966    0.00000000    -0.17670000
opls_145-23    C    0.71914996    0.43829992    0.00000000    -0.17670000
opls_700-24    C    0.61260002    0.22520005    0.00000000    0.06060000
opls_700-25    C    0.77480021    0.38740035    0.00000000    0.06060000
opls_700-26    C    0.61260015    0.38740035    0.00000000    0.06060000
opls_145-27    C    0.55229971    0.60439995    0.00000000    -0.18390000
opls_145-28    C    0.60490009    0.55149993    0.00000000    -0.12150000
opls_145-29    C    0.39560028    0.94790046    0.00000000    -0.18400000
opls_145-30    C    0.44849979    0.05339995    0.00000000    -0.12160000
opls_145-31    C    0.05210039    0.44770034    0.00000000    -0.18390000
opls_145-32    C    0.94660012    0.39510012    0.00000000    -0.12160000
opls_145-33    C    0.39559995    0.44770034    0.00000000    -0.18390000
opls_145-34    C    0.44850000    0.39510012    0.00000000    -0.12160000
opls_145-35    C    0.05210024    0.60439995    0.00000000    -0.18400000
opls_145-36    C    0.94659984    0.55149993    0.00000000    -0.12160000
opls_145-37    C    0.55230019    0.94790046    0.00000000    -0.18390000
opls_145-38    C    0.60490016    0.05339995    0.00000000    -0.12160000
opls_700-39    C    0.55490029    0.44510027    0.00000000    0.06060000
opls_916-40    C    0.44509971    0.55489973    0.00000000    0.21030000
opls_700-41    C    0.55490011    0.10980021    0.00000000    0.06060000
opls_916-42    C    0.44509989    0.89019979    0.00000000    0.21030000
opls_700-43    C    0.89019998    0.44510027    0.00000000    0.06060000
opls_916-44    C    0.10980002    0.55489973    0.00000000    0.21030000
opls_239-45    N    0.38900019    0.77800039    0.00000000    -0.43740000
opls_239-46    N    0.22199988    0.61100018    0.00000000    -0.43740000
opls_239-47    N    0.38900030    0.61100018    0.00000000    -0.43740000
