#======================================================================
# Crystal Data Generated By AuToFF
#----------------------------------------------------------------------

data_AuToFF_phase_1

_cell_length_a                         15.2777
_cell_length_b                         15.2777
_cell_length_c                         3.5181
_cell_angle_alpha                      90.00
_cell_angle_beta                       90.00
_cell_angle_gamma                      120.00
_symmetry_space_group_name_H-M_alt     'P 1'
_symmetry_space_group_IT_number        1

loop_
_space_group_symop_operation_xyz
   'x, y, z'

loop_
   _atom_site_label
   _atom_site_type_symbol
   _atom_site_fract_x
   _atom_site_fract_y
   _atom_site_fract_z
   _atom_site_charge
opls_750-0    N    0.46224973    0.94886961    0.00000000    -0.16830000
opls_750-1    N    0.05113029    0.51338006    0.00000000    -0.16830000
opls_750-2    N    0.48661960    0.53774957    0.00000000    -0.16830000
opls_750-3    N    0.53774990    0.05112963    0.00000000    -0.16830000
opls_750-4    N    0.94886971    0.48661994    0.00000000    -0.16830000
opls_750-5    N    0.51338002    0.46224968    0.00000000    -0.16830000
opls_145-6    C    0.30383961    0.74009968    0.00000000    -0.15170000
opls_142-7    C    0.51382021    0.12156032    0.00000000    0.01380000
opls_700-8    C    0.40735000    0.77024960    0.00000000    0.06390000
opls_145-9    C    0.25989983    0.56373952    0.00000000    -0.15170000
opls_142-10    C    0.87843998    0.39225962    0.00000000    0.01380000
opls_700-11    C    0.22974985    0.63709972    0.00000000    0.06390000
opls_145-12    C    0.43626018    0.69616004    0.00000000    -0.15170000
opls_142-13    C    0.60773981    0.48618006    0.00000000    0.01380000
opls_700-14    C    0.36289977    0.59264992    0.00000000    0.06390000
opls_145-15    C    0.69616001    0.25989957    0.00000000    -0.15170000
opls_142-16    C    0.48617979    0.87843968    0.00000000    0.01380000
opls_700-17    C    0.59264962    0.22974965    0.00000000    0.06390000
opls_145-18    C    0.74009979    0.43625972    0.00000000    -0.15170000
opls_142-19    C    0.12155965    0.60773962    0.00000000    0.01380000
opls_700-20    C    0.77025015    0.36290028    0.00000000    0.06390000
opls_145-21    C    0.56373982    0.30383996    0.00000000    -0.15170000
opls_142-22    C    0.39226019    0.51381994    0.00000000    0.01380000
opls_700-23    C    0.63710023    0.40735008    0.00000000    0.06390000
opls_144-24    H    0.43459968    0.10074991    0.00000000    0.11800000
opls_146-25    H    0.28097991    0.79697949    0.00000000    0.12430000
opls_144-26    H    0.89924992    0.33385005    0.00000000    0.11800000
opls_146-27    H    0.20302009    0.48399955    0.00000000    0.12430000
opls_144-28    H    0.66614975    0.56540003    0.00000000    0.11800000
opls_146-29    H    0.51599990    0.71901945    0.00000000    0.12430000
opls_144-30    H    0.56540032    0.89925009    0.00000000    0.11800000
opls_146-31    H    0.71901971    0.20301975    0.00000000    0.12430000
opls_144-32    H    0.10075008    0.66614995    0.00000000    0.11800000
opls_146-33    H    0.79697954    0.51599969    0.00000000    0.12430000
opls_144-34    H    0.33385025    0.43459997    0.00000000    0.11800000
opls_146-35    H    0.48399972    0.28097980    0.00000000    0.12430000
