#======================================================================
# Crystal Data Generated By AuToFF
#----------------------------------------------------------------------

data_AuToFF_phase_1

_cell_length_a                         19.3832
_cell_length_b                         3.4632
_cell_length_c                         19.3021
_cell_angle_alpha                      90.00
_cell_angle_beta                       123.77
_cell_angle_gamma                      90.00
_symmetry_space_group_name_H-M_alt     'P 1'
_symmetry_space_group_IT_number        1

loop_
_space_group_symop_operation_xyz
   'x, y, z'

loop_
   _atom_site_label
   _atom_site_type_symbol
   _atom_site_fract_x
   _atom_site_fract_y
   _atom_site_fract_z
   _atom_site_charge
opls_531-0    C    0.46812009    0.50000000    0.50185008    0.33200000
opls_700-1    C    0.41675014    0.50000000    0.53704995    0.00040000
opls_523-2    C    0.32978016    0.50000000    0.48386031    -0.11890000
opls_145-3    C    0.28095015    0.50000000    0.51626994    -0.12020000
opls_700-4    C    0.31724976    0.50000000    0.60271994    0.10470000
opls_145-5    C    0.40465987    0.50000000    0.65624986    -0.13080000
opls_523-6    C    0.45361022    0.50000000    0.62361026    -0.13170000
opls_142-7    C    0.26030999    0.50000000    0.63187003    -0.12600000
opls_142-8    C    0.28420976    0.50000000    0.71213999    -0.09590000
opls_700-9    C    0.23070988    0.50000000    0.74770010    0.02210000
opls_700-10    C    0.27232021    0.50000000    0.83656015    -0.03380000
opls_521-11    C    0.22570023    0.50000000    0.87359047    0.18660000
opls_521-12    C    0.09878973    0.50000000    0.73846994    0.18640000
opls_700-13    C    0.14206028    0.50000000    0.69881018    -0.04940000
opls_142-14    C    0.25852981    0.50000000    0.96483005    -0.13580000
opls_142-15    C    0.00633013    0.50000000    0.68897049    -0.19230000
opls_531-16    C    0.59887022    0.50000000    0.52020008    0.35230000
opls_531-17    C    0.47662971    0.50000000    0.38475983    0.35470000
opls_423-18    C    0.36194016    0.50000000    0.88703995    0.23100000
opls_423-19    C    0.09276017    0.50000000    0.60885011    0.23100000
opls_700-20    C    0.69111024    0.50000000    0.57329001    0.00030000
opls_700-21    C    0.43774994    0.50000000    0.29324977    -0.00530000
opls_523-22    C    0.73464994    0.50000000    0.53465983    -0.12270000
opls_145-23    C    0.82079989    0.50000000    0.58126995    -0.11020000
opls_700-24    C    0.86742043    0.50000000    0.66913033    0.10700000
opls_145-25    C    0.82398982    0.50000000    0.70819988    -0.13080000
opls_523-26    C    0.73666975    0.50000000    0.66085996    -0.12890000
opls_523-27    C    0.35110011    0.50000000    0.23573984    -0.13500000
opls_145-28    C    0.31656022    0.50000000    0.14957031    -0.13160000
opls_700-29    C    0.36840996    0.50000000    0.11966983    0.10890000
opls_145-30    C    0.45467013    0.50000000    0.17759982    -0.11990000
opls_523-31    C    0.48880010    0.50000000    0.26279025    -0.12080000
opls_142-32    C    0.96029997    0.50000000    0.72138012    -0.09540000
opls_142-33    C    0.33827981    0.50000000    0.03007000    -0.13220000
opls_520-34    N    0.14170021    0.50000000    0.82267004    -0.29780000
opls_520-35    N    0.55251014    0.50000000    0.55296995    -0.47070000
opls_520-36    N    0.56013999    0.50000000    0.43651041    -0.42630000
opls_520-37    N    0.43066039    0.50000000    0.41776029    -0.44810000
opls_262-38    N    0.43382008    0.50000000    0.92592004    -0.29770000
opls_262-39    N    0.05136025    0.50000000    0.53668037    -0.29760000
opls_526-40    H    0.29939022    0.50000000    0.41686034    0.11500000
opls_146-41    H    0.21406001    0.50000000    0.47324033    0.11340000
opls_146-42    H    0.43652031    0.50000000    0.72314015    0.09890000
opls_526-43    H    0.52053028    0.50000000    0.66613006    0.11540000
opls_144-44    H    0.19660018    0.50000000    0.58205024    0.23750000
opls_144-45    H    0.35004998    0.50000000    0.75678005    0.09490000
opls_144-46    H    0.21066005    0.50000000    0.97721005    0.11940000
opls_144-47    H    0.97547992    0.50000000    0.62274022    0.24480000
opls_526-48    H    0.70186022    0.50000000    0.46739000    0.11500000
opls_146-49    H    0.84860985    0.50000000    0.54612991    0.08610000
opls_146-50    H    0.85772993    0.50000000    0.77552020    0.11640000
opls_526-51    H    0.70469040    0.50000000    0.69234034    0.11510000
opls_526-52    H    0.31036004    0.50000000    0.25759992    0.11720000
opls_146-53    H    0.24985980    0.50000000    0.10747992    0.11560000
opls_146-54    H    0.49639008    0.50000000    0.15686033    0.11780000
opls_526-55    H    0.55574026    0.50000000    0.30509005    0.11500000
opls_144-56    H    0.99172011    0.50000000    0.78854027    0.11340000
opls_144-57    H    0.38745024    0.50000000    0.02078998    0.23750000
