#======================================================================
# Crystal Data Generated By AuToFF
#----------------------------------------------------------------------

data_AuToFF_phase_1

_cell_length_a                         47.1600
_cell_length_b                         7.2253
_cell_length_c                         47.1023
_cell_angle_alpha                      90.00
_cell_angle_beta                       120.00
_cell_angle_gamma                      90.00
_symmetry_space_group_name_H-M_alt     'P 1'
_symmetry_space_group_IT_number        1

loop_
_space_group_symop_operation_xyz
   'x, y, z'

loop_
   _atom_site_label
   _atom_site_type_symbol
   _atom_site_fract_x
   _atom_site_fract_y
   _atom_site_fract_z
   _atom_site_charge
opls_142-0    C    0.84224002    0.26343958    0.40388005    0.07850000
opls_145-1    C    0.31818006    0.25650008    0.68263001    -0.14260000
opls_145-2    C    0.34907007    0.25695957    0.69878007    0.02080000
opls_145-3    C    0.26973989    0.25596031    0.63500989    0.02820000
opls_145-4    C    0.25389006    0.33111982    0.60648993    -0.22680000
opls_145-5    C    0.22320987    0.32686947    0.59081987    -0.22250000
opls_145-6    C    0.20742999    0.25277982    0.60331993    0.11910000
opls_145-7    C    0.22293991    0.17882026    0.63183989    -0.22560000
opls_145-8    C    0.25362995    0.17864033    0.64728000    -0.22680000
opls_145-9    C    0.87438988    0.25718932    0.42334989    -0.00280000
opls_145-10    C    0.88724997    0.26392953    0.45408010    -0.21590000
opls_145-11    C    0.91728996    0.23044995    0.47209009    -0.21590000
opls_145-12    C    0.93471000    0.18789946    0.45959003    0.02230000
opls_145-13    C    0.92247986    0.19899935    0.42906992    -0.21590000
opls_145-14    C    0.89248001    0.23316956    0.41104987    -0.21590000
opls_141-15    C    0.96267990    0.08722960    0.47721000    0.00040000
opls_261-16    C    0.98911999    0.19632956    0.49298989    -0.00970000
opls_142-17    C    0.56259990    0.20822942    0.15790996    0.07850000
opls_145-18    C    0.36449995    0.25844048    0.68331005    -0.14260000
opls_145-19    C    0.34978007    0.25981067    0.65243006    0.02140000
opls_145-20    C    0.36515984    0.25622050    0.73168988    0.02850000
opls_145-21    C    0.35220987    0.33008041    0.74739991    -0.22730000
opls_145-22    C    0.36715990    0.32774002    0.77804995    -0.21950000
opls_145-23    C    0.39578987    0.25912972    0.79388990    0.11820000
opls_145-24    C    0.40891999    0.18423041    0.77856990    -0.22570000
opls_145-25    C    0.39369003    0.18121047    0.74791006    -0.22730000
opls_145-26    C    0.55093991    0.21686989    0.12593000    0.00610000
opls_145-27    C    0.56963993    0.24407014    0.11432006    -0.21580000
opls_145-28    C    0.55789011    0.27745007    0.08436011    -0.21590000
opls_145-29    C    0.52736995    0.28624002    0.06571004    0.02310000
opls_145-30    C    0.50874988    0.24162042    0.07673995    -0.21590000
opls_145-31    C    0.52049008    0.20724953    0.10670995    -0.21590000
opls_141-32    C    0.51537007    0.38610023    0.03747004    -0.00080000
opls_261-33    C    0.50492005    0.27638022    0.01113999    -0.00970000
opls_142-34    C    0.59509013    0.22396025    0.43828010    0.07850000
opls_145-35    C    0.31885000    0.25921969    0.63702010    -0.14250000
opls_145-36    C    0.30268998    0.25734987    0.65176007    0.02070000
opls_145-37    C    0.36663997    0.26218981    0.63634986    0.02790000
opls_145-38    C    0.39524006    0.33716939    0.64938999    -0.22730000
opls_145-39    C    0.41100000    0.33744066    0.63447007    -0.22280000
opls_145-40    C    0.39833995    0.27021023    0.60579004    0.11870000
opls_145-41    C    0.36991987    0.19443068    0.59254987    -0.22570000
opls_145-42    C    0.35442998    0.18894994    0.60772989    -0.22730000
opls_145-43    C    0.57482994    0.23676941    0.44996996    -0.00280000
opls_145-44    C    0.54449004    0.26226039    0.43122991    -0.21590000
opls_145-45    C    0.52632000    0.30080965    0.44285995    -0.21580000
opls_145-46    C    0.53829998    0.31651004    0.47329990    0.02310000
opls_145-47    C    0.56798000    0.27344055    0.49207010    -0.21590000
opls_145-48    C    0.58616001    0.23380067    0.48044006    -0.21590000
opls_141-49    C    0.52201998    0.42029950    0.48486007    0.00040000
opls_261-50    C    0.50609003    0.31336969    0.49557987    -0.00970000
opls_142-51    C    0.15757001    0.21319945    0.59503003    0.07850000
opls_145-52    C    0.68233012    0.25747997    0.31882004    -0.14260000
opls_145-53    C    0.65142007    0.25699971    0.30285996    0.02020000
opls_145-54    C    0.73097004    0.25867992    0.36641001    0.02820000
opls_145-55    C    0.74674986    0.33298963    0.39501993    -0.22730000
opls_145-56    C    0.77742007    0.33125960    0.41065004    -0.22280000
opls_145-57    C    0.79324008    0.26289012    0.39784010    0.11880000
opls_145-58    C    0.77786996    0.18776937    0.36940987    -0.22570000
opls_145-59    C    0.74716991    0.18411969    0.35404992    -0.22680000
opls_145-60    C    0.12558987    0.22373050    0.57468991    0.00630000
opls_145-61    C    0.11406008    0.25263034    0.54445000    -0.21590000
opls_145-62    C    0.08413994    0.28818042    0.52626006    -0.21590000
opls_145-63    C    0.06548005    0.29745062    0.53811000    0.02340000
opls_145-64    C    0.07640007    0.25104010    0.56766006    -0.21590000
opls_145-65    C    0.10631993    0.21448936    0.58586005    -0.21590000
opls_141-66    C    0.03737002    0.39897028    0.52198004    0.00040000
opls_261-67    C    0.01089006    0.29042946    0.50604006    -0.00970000
opls_142-68    C    0.43866002    0.25882939    0.84285000    0.07850000
opls_145-69    C    0.63618006    0.25784950    0.31851998    -0.14260000
opls_145-70    C    0.65111990    0.25841972    0.34938991    0.02050000
opls_145-71    C    0.63505011    0.25495966    0.26993005    0.02750000
opls_145-72    C    0.64763007    0.32919048    0.25393002    -0.22730000
opls_145-73    C    0.63254001    0.32386060    0.22329003    -0.22420000
opls_145-74    C    0.60425000    0.24953012    0.20765992    0.11850000
opls_145-75    C    0.59131993    0.17664042    0.22332999    -0.22570000
opls_145-76    C    0.60664990    0.17770058    0.25399989    -0.22680000
opls_145-77    C    0.45129986    0.25060966    0.87495989    -0.00390000
opls_145-78    C    0.43336995    0.25561984    0.88777987    -0.21590000
opls_145-79    C    0.44534988    0.21982063    0.91771996    -0.21590000
opls_145-80    C    0.47524995    0.17670962    0.93505997    0.02330000
opls_145-81    C    0.49361990    0.18957967    0.92289993    -0.21590000
opls_145-82    C    0.48167998    0.22605982    0.89300004    -0.21590000
opls_141-83    C    0.48555984    0.07437061    0.96284988    -0.00080000
opls_261-84    C    0.49622999    0.18227063    0.98937997    -0.00970000
opls_142-85    C    0.40449995    0.27532974    0.56296010    0.07850000
opls_145-86    C    0.68201001    0.25846954    0.36460989    -0.14260000
opls_145-87    C    0.69800987    0.25818997    0.34971988    0.02140000
opls_145-88    C    0.63452008    0.25841003    0.36570006    0.02840000
opls_145-89    C    0.60600995    0.33395015    0.35306002    -0.22730000
opls_145-90    C    0.59041993    0.33090944    0.36812996    -0.22090000
opls_145-91    C    0.60302998    0.25787026    0.39646998    0.11850000
opls_145-92    C    0.63152995    0.18332941    0.40943999    -0.22570000
opls_145-93    C    0.64688003    0.18184989    0.39410994    -0.22680000
opls_145-94    C    0.42396987    0.27123026    0.55024994    -0.00390000
opls_145-95    C    0.45473003    0.27447026    0.56811996    -0.21590000
opls_145-96    C    0.47265005    0.24354975    0.55590010    -0.21590000
opls_145-97    C    0.46002996    0.20720939    0.52579992    0.02080000
opls_145-98    C    0.42950005    0.22170014    0.50759994    -0.21590000
opls_145-99    C    0.41157998    0.25316042    0.51977003    -0.21590000
opls_141-100    C    0.47740004    0.10861971    0.51493009    0.00040000
opls_261-101    C    0.49308997    0.21926979    0.50435002    -0.00970000
opls_142-102    C    0.15775998    0.76343958    0.59611995    0.07850000
opls_145-103    C    0.68181994    0.75650008    0.31736999    -0.14260000
opls_145-104    C    0.65092993    0.75695957    0.30121993    0.02080000
opls_145-105    C    0.73025999    0.75596031    0.36498987    0.02820000
opls_145-106    C    0.74610994    0.83111982    0.39351007    -0.22670000
opls_145-107    C    0.77679001    0.82686947    0.40917989    -0.22250000
opls_145-108    C    0.79257001    0.75277982    0.39668007    0.11910000
opls_145-109    C    0.77705997    0.67882026    0.36815987    -0.22570000
opls_145-110    C    0.74637005    0.67864033    0.35272000    -0.22680000
opls_145-111    C    0.12560999    0.75718932    0.57664986    -0.00280000
opls_145-112    C    0.11275003    0.76392953    0.54591990    -0.21590000
opls_145-113    C    0.08271004    0.73044995    0.52790991    -0.21590000
opls_145-114    C    0.06529000    0.68789946    0.54040997    0.02230000
opls_145-115    C    0.07752014    0.69899935    0.57093008    -0.21590000
opls_145-116    C    0.10751987    0.73316956    0.58894988    -0.21590000
opls_141-117    C    0.03732010    0.58722960    0.52279000    0.00040000
opls_261-118    C    0.01087989    0.69632956    0.50700987    -0.00970000
opls_142-119    C    0.43740010    0.70822942    0.84209004    0.07850000
opls_145-120    C    0.63550005    0.75844048    0.31668995    -0.14260000
opls_145-121    C    0.65021993    0.75981067    0.34756994    0.02140000
opls_145-122    C    0.63484004    0.75622050    0.26830987    0.02850000
opls_145-123    C    0.64779013    0.83008041    0.25260009    -0.22730000
opls_145-124    C    0.63284010    0.82774002    0.22195005    -0.21950000
opls_145-125    C    0.60421013    0.75912972    0.20611010    0.11820000
opls_145-126    C    0.59108001    0.68423041    0.22143010    -0.22570000
opls_145-127    C    0.60630997    0.68121047    0.25208994    -0.22730000
opls_145-128    C    0.44906009    0.71686989    0.87407000    0.00610000
opls_145-129    C    0.43036007    0.74407014    0.88567994    -0.21590000
opls_145-130    C    0.44210989    0.77745007    0.91563989    -0.21590000
opls_145-131    C    0.47263005    0.78624002    0.93428996    0.02310000
opls_145-132    C    0.49125012    0.74162042    0.92326005    -0.21590000
opls_145-133    C    0.47950992    0.70724953    0.89329005    -0.21590000
opls_141-134    C    0.48462993    0.88610023    0.96252996    -0.00080000
opls_261-135    C    0.49507995    0.77638022    0.98886001    -0.00970000
opls_142-136    C    0.40490987    0.72396025    0.56171990    0.07850000
opls_145-137    C    0.68115000    0.75921969    0.36297990    -0.14260000
opls_145-138    C    0.69731002    0.75734987    0.34823993    0.02070000
opls_145-139    C    0.63335991    0.76218981    0.36364989    0.02790000
opls_145-140    C    0.60475994    0.83716939    0.35061001    -0.22730000
opls_145-141    C    0.58900000    0.83744066    0.36552993    -0.22280000
opls_145-142    C    0.60166005    0.77021023    0.39420996    0.11870000
opls_145-143    C    0.63008001    0.69443068    0.40744988    -0.22570000
opls_145-144    C    0.64556990    0.68894994    0.39226987    -0.22730000
opls_145-145    C    0.42517006    0.73676941    0.55003004    -0.00280000
opls_145-146    C    0.45550996    0.76226039    0.56877009    -0.21590000
opls_145-147    C    0.47368000    0.80080965    0.55714005    -0.21590000
opls_145-148    C    0.46169990    0.81651004    0.52669986    0.02310000
opls_145-149    C    0.43202000    0.77344055    0.50792990    -0.21590000
opls_145-150    C    0.41383999    0.73380067    0.51955994    -0.21580000
opls_141-151    C    0.47798002    0.92029950    0.51513993    0.00040000
opls_261-152    C    0.49390985    0.81336969    0.50441988    -0.00970000
opls_142-153    C    0.84242999    0.71319945    0.40496997    0.07850000
opls_145-154    C    0.31766988    0.75747997    0.68117996    -0.14260000
opls_145-155    C    0.34857993    0.75699971    0.69714004    0.02020000
opls_145-156    C    0.26902996    0.75867992    0.63358999    0.02820000
opls_145-157    C    0.25325014    0.83298963    0.60498007    -0.22730000
opls_145-158    C    0.22257993    0.83125960    0.58934996    -0.22280000
opls_145-159    C    0.20675992    0.76289012    0.60215990    0.11870000
opls_145-160    C    0.22212992    0.68776937    0.63058988    -0.22570000
opls_145-161    C    0.25283009    0.68411969    0.64595008    -0.22680000
opls_145-162    C    0.87441013    0.72373050    0.42531009    0.00630000
opls_145-163    C    0.88593992    0.75263034    0.45555000    -0.21590000
opls_145-164    C    0.91586006    0.78818042    0.47373994    -0.21580000
opls_145-165    C    0.93451995    0.79745062    0.46189000    0.02340000
opls_145-166    C    0.92359993    0.75104010    0.43233994    -0.21590000
opls_145-167    C    0.89368007    0.71448936    0.41413995    -0.21580000
opls_141-168    C    0.96262998    0.89897028    0.47801996    0.00040000
opls_261-169    C    0.98910994    0.79042946    0.49395994    -0.00970000
opls_142-170    C    0.56133998    0.75882939    0.15715000    0.07850000
opls_145-171    C    0.36381994    0.75784950    0.68148002    -0.14260000
opls_145-172    C    0.34888010    0.75841972    0.65061009    0.02050000
opls_145-173    C    0.36494989    0.75495966    0.73006995    0.02750000
opls_145-174    C    0.35236993    0.82919048    0.74606998    -0.22730000
opls_145-175    C    0.36745999    0.82386060    0.77670997    -0.22410000
opls_145-176    C    0.39575000    0.74953012    0.79234008    0.11850000
opls_145-177    C    0.40868007    0.67664042    0.77667001    -0.22570000
opls_145-178    C    0.39334997    0.67770058    0.74599987    -0.22680000
opls_145-179    C    0.54870014    0.75060966    0.12504011    -0.00390000
opls_145-180    C    0.56662993    0.75561984    0.11221989    -0.21590000
opls_145-181    C    0.55465012    0.71982063    0.08228004    -0.21590000
opls_145-182    C    0.52475005    0.67670962    0.06494003    0.02330000
opls_145-183    C    0.50638010    0.68957967    0.07710007    -0.21580000
opls_145-184    C    0.51832002    0.72605982    0.10699996    -0.21590000
opls_141-185    C    0.51444004    0.57437061    0.03714988    -0.00080000
opls_261-186    C    0.50377001    0.68227063    0.01062003    -0.00970000
opls_142-187    C    0.59550005    0.77532974    0.43703990    0.07850000
opls_145-188    C    0.31798987    0.75846954    0.63538987    -0.14260000
opls_145-189    C    0.30199001    0.75818997    0.65027987    0.02140000
opls_145-190    C    0.36547992    0.75841003    0.63429994    0.02840000
opls_145-191    C    0.39399005    0.83395015    0.64693998    -0.22730000
opls_145-192    C    0.40958007    0.83090944    0.63187004    -0.22090000
opls_145-193    C    0.39697002    0.75787026    0.60353002    0.11850000
opls_145-194    C    0.36847005    0.68332941    0.59056001    -0.22570000
opls_145-195    C    0.35311997    0.68184989    0.60589006    -0.22680000
opls_145-196    C    0.57603013    0.77123026    0.44975006    -0.00390000
opls_145-197    C    0.54526997    0.77447026    0.43188004    -0.21590000
opls_145-198    C    0.52734995    0.74354975    0.44409990    -0.21590000
opls_145-199    C    0.53997004    0.70720939    0.47420008    0.02080000
opls_145-200    C    0.57049995    0.72170014    0.49240006    -0.21590000
opls_145-201    C    0.58842002    0.75316042    0.48022997    -0.21590000
opls_141-202    C    0.52259996    0.60861971    0.48506991    0.00040000
opls_261-203    C    0.50691003    0.71926979    0.49564998    -0.00970000
opls_750-204    N    0.41039001    0.26201957    0.82537001    -0.21730000
opls_750-205    N    0.41526993    0.27606051    0.59121995    -0.21670000
opls_750-206    N    0.17589994    0.25206012    0.58601008    -0.21640000
opls_750-207    N    0.58996995    0.24735028    0.17614991    -0.22030000
opls_750-208    N    0.58584996    0.25906052    0.41080007    -0.22010000
opls_750-209    N    0.82476006    0.26678062    0.41466996    -0.21680000
opls_750-210    N    0.58960999    0.76201957    0.17462999    -0.21730000
opls_750-211    N    0.58473007    0.77606051    0.40878005    -0.21660000
opls_750-212    N    0.82410006    0.75206012    0.41398992    -0.21640000
opls_750-213    N    0.41002993    0.74735028    0.82384985    -0.22040000
opls_750-214    N    0.41415004    0.75906052    0.58919993    -0.22010000
opls_750-215    N    0.17523994    0.76678062    0.58533004    -0.21680000
opls_144-216    H    0.83349001    0.26330948    0.38036992    0.09260000
opls_146-217    H    0.30610004    0.25538040    0.69419998    0.19720000
opls_146-218    H    0.26490999    0.39821045    0.59630994    0.19720000
opls_146-219    H    0.21159989    0.38534040    0.56893998    0.19720000
opls_146-220    H    0.21175996    0.11448936    0.64203998    0.19720000
opls_146-221    H    0.26450993    0.11141960    0.66847005    0.19720000
opls_146-222    H    0.87388997    0.28545943    0.46417992    0.19730000
opls_146-223    H    0.92639008    0.22117974    0.49561002    0.19700000
opls_146-224    H    0.93562010    0.16516961    0.41911007    0.19690000
opls_146-225    H    0.88312009    0.22996000    0.38745002    0.19700000
opls_144-226    H    0.54751007    0.17773933    0.16566005    0.09260000
opls_146-227    H    0.38815994    0.25868960    0.69542008    0.19720000
opls_146-228    H    0.33084007    0.39510055    0.73629007    0.19720000
opls_146-229    H    0.35673988    0.38543036    0.78955986    0.19740000
opls_146-230    H    0.43047989    0.12170014    0.79009992    0.19720000
opls_146-231    H    0.40417009    0.11442016    0.73715005    0.19720000
opls_146-232    H    0.59323998    0.24873016    0.12854989    0.19700000
opls_146-233    H    0.57252991    0.31257941    0.07616998    0.19720000
opls_146-234    H    0.48513999    0.24916059    0.06265011    0.19720000
opls_146-235    H    0.50569991    0.18362006    0.11511998    0.19720000
opls_144-236    H    0.61797994    0.19477946    0.45340987    0.09260000
opls_146-237    H    0.30726991    0.26021065    0.61336999    0.19720000
opls_146-238    H    0.40541992    0.40107954    0.67082004    0.19720000
opls_146-239    H    0.43288998    0.39601954    0.64498003    0.19730000
opls_146-240    H    0.35996996    0.13320001    0.57092003    0.19720000
opls_146-241    H    0.33322994    0.12156035    0.59714001    0.19740000
opls_146-242    H    0.53505004    0.26170955    0.40762001    0.19700000
opls_146-243    H    0.50344991    0.33444978    0.42811997    0.19720000
opls_146-244    H    0.57756006    0.28611961    0.51561993    0.19720000
opls_146-245    H    0.60940002    0.21161059    0.49528006    0.19720000
opls_144-246    H    0.16524002    0.18176962    0.61781991    0.09260000
opls_146-247    H    0.69428002    0.25713950    0.30711008    0.19710000
opls_146-248    H    0.73568009    0.39795995    0.40532004    0.19720000
opls_146-249    H    0.78897005    0.38929041    0.43256008    0.19740000
opls_146-250    H    0.78938011    0.12559063    0.35935001    0.19720000
opls_146-251    H    0.73639006    0.11713977    0.33284002    0.19720000
opls_146-252    H    0.12833008    0.25703016    0.53512999    0.19690000
opls_146-253    H    0.07601987    0.32457061    0.50350990    0.19720000
opls_146-254    H    0.06228998    0.25881970    0.57714996    0.19700000
opls_146-255    H    0.11467007    0.18955061    0.60900000    0.19700000
opls_144-256    H    0.45346001    0.25988955    0.83413991    0.09260000
opls_146-257    H    0.61252000    0.25774985    0.30658007    0.19710000
opls_146-258    H    0.66884997    0.39625067    0.26481996    0.19730000
opls_146-259    H    0.64275001    0.38154956    0.21155997    0.19720000
opls_146-260    H    0.56991986    0.11228046    0.21226992    0.19720000
opls_146-261    H    0.59640004    0.11145973    0.26502000    0.19720000
opls_146-262    H    0.40991990    0.27750958    0.87444998    0.19720000
opls_146-263    H    0.43088999    0.20927989    0.92677987    0.19730000
opls_146-264    H    0.51671996    0.15542054    0.93599987    0.19720000
opls_146-265    H    0.49595987    0.22414986    0.88365992    0.19720000
opls_144-266    H    0.38097994    0.27637053    0.54818997    0.09260000
opls_146-267    H    0.69367987    0.25862040    0.38824994    0.19710000
opls_146-268    H    0.59577004    0.40044012    0.33180991    0.19720000
opls_146-269    H    0.56855002    0.38973053    0.35788991    0.19720000
opls_146-270    H    0.64176007    0.11957981    0.43087004    0.19720000
opls_146-271    H    0.66806994    0.11446030    0.40438995    0.19720000
opls_146-272    H    0.46490995    0.29124050    0.59165999    0.19690000
opls_146-273    H    0.49618005    0.23143953    0.57026009    0.19720000
opls_146-274    H    0.41942983    0.19254010    0.48433986    0.19710000
opls_146-275    H    0.38796008    0.25273968    0.50553996    0.19730000
opls_144-276    H    0.16650999    0.76330948    0.61963008    0.09260000
opls_146-277    H    0.69389996    0.75538040    0.30580002    0.19710000
opls_146-278    H    0.73509001    0.89821045    0.40369006    0.19720000
opls_146-279    H    0.78840011    0.88534040    0.43106002    0.19730000
opls_146-280    H    0.78824004    0.61448936    0.35796002    0.19720000
opls_146-281    H    0.73549007    0.61141960    0.33152995    0.19730000
opls_146-282    H    0.12611003    0.78545943    0.53582008    0.19730000
opls_146-283    H    0.07360992    0.72117974    0.50438998    0.19700000
opls_146-284    H    0.06437990    0.66516961    0.58088993    0.19690000
opls_146-285    H    0.11687991    0.72996000    0.61254998    0.19700000
opls_144-286    H    0.45248993    0.67773933    0.83433995    0.09260000
opls_146-287    H    0.61184006    0.75868960    0.30457992    0.19710000
opls_146-288    H    0.66915993    0.89510055    0.26370993    0.19720000
opls_146-289    H    0.64326000    0.88543036    0.21043989    0.19740000
opls_146-290    H    0.56952011    0.62170014    0.20990008    0.19730000
opls_146-291    H    0.59582991    0.61442016    0.26284995    0.19720000
opls_146-292    H    0.40675989    0.74873016    0.87144987    0.19700000
opls_146-293    H    0.42747009    0.81257941    0.92383002    0.19720000
opls_146-294    H    0.51486001    0.74916059    0.93734989    0.19720000
opls_146-295    H    0.49430009    0.68362006    0.88488002    0.19720000
opls_144-296    H    0.38201994    0.69477946    0.54658989    0.09260000
opls_146-297    H    0.69273009    0.76021065    0.38663001    0.19710000
opls_146-298    H    0.59458008    0.90107954    0.32917996    0.19720000
opls_146-299    H    0.56711002    0.89601954    0.35501997    0.19720000
opls_146-300    H    0.64003004    0.63320001    0.42907997    0.19730000
opls_146-301    H    0.66677006    0.62156035    0.40285999    0.19740000
opls_146-302    H    0.46494996    0.76170955    0.59237999    0.19700000
opls_146-303    H    0.49655009    0.83444978    0.57188003    0.19720000
opls_146-304    H    0.42243994    0.78611961    0.48438007    0.19720000
opls_146-305    H    0.39059998    0.71161059    0.50471994    0.19720000
opls_144-306    H    0.83475998    0.68176962    0.38218009    0.09270000
opls_146-307    H    0.30571998    0.75713950    0.69288992    0.19710000
opls_146-308    H    0.26431991    0.89795995    0.59467996    0.19720000
opls_146-309    H    0.21102995    0.88929041    0.56743992    0.19740000
opls_146-310    H    0.21061989    0.62559063    0.64064999    0.19720000
opls_146-311    H    0.26360994    0.61713977    0.66715998    0.19720000
opls_146-312    H    0.87166992    0.75703016    0.46487001    0.19690000
opls_146-313    H    0.92398013    0.82457061    0.49649010    0.19720000
opls_146-314    H    0.93771002    0.75881970    0.42285004    0.19700000
opls_146-315    H    0.88532993    0.68955061    0.39100000    0.19710000
opls_144-316    H    0.54653999    0.75988955    0.16586009    0.09260000
opls_146-317    H    0.38748000    0.75774985    0.69341993    0.19710000
opls_146-318    H    0.33115003    0.89625067    0.73518004    0.19720000
opls_146-319    H    0.35724999    0.88154956    0.78844003    0.19720000
opls_146-320    H    0.43008014    0.61228046    0.78773008    0.19720000
opls_146-321    H    0.40359996    0.61145973    0.73498000    0.19730000
opls_146-322    H    0.59008010    0.77750958    0.12555002    0.19720000
opls_146-323    H    0.56910989    0.70927989    0.07321988    0.19730000
opls_146-324    H    0.48327992    0.65542054    0.06399989    0.19720000
opls_146-325    H    0.50404013    0.72414986    0.11634008    0.19720000
opls_144-326    H    0.61902006    0.77637053    0.45181003    0.09270000
opls_146-327    H    0.30632013    0.75862040    0.61175006    0.19710000
opls_146-328    H    0.40422996    0.90044012    0.66819009    0.19720000
opls_146-329    H    0.43144998    0.88973053    0.64211009    0.19720000
opls_146-330    H    0.35823993    0.61957981    0.56912996    0.19730000
opls_146-331    H    0.33193006    0.61446030    0.59561005    0.19720000
opls_146-332    H    0.53509005    0.79124050    0.40834001    0.19690000
opls_146-333    H    0.50381995    0.73143953    0.42973991    0.19720000
opls_146-334    H    0.58057005    0.69254010    0.51565989    0.19700000
opls_146-335    H    0.61203992    0.75273968    0.49446004    0.19710000
