#======================================================================
# Crystal Data Generated By AuToFF
#----------------------------------------------------------------------

data_AuToFF_phase_1

_cell_length_a                         57.4000
_cell_length_b                         48.4000
_cell_length_c                         3.8800
_cell_angle_alpha                      90.00
_cell_angle_beta                       76.00
_cell_angle_gamma                      90.00
_symmetry_space_group_name_H-M_alt     'P 1'
_symmetry_space_group_IT_number        1

loop_
_space_group_symop_operation_xyz
   'x, y, z'

loop_
   _atom_site_label
   _atom_site_type_symbol
   _atom_site_fract_x
   _atom_site_fract_y
   _atom_site_fract_z
   _atom_site_charge
opls_700-0    C    0.52488999    0.52550000    0.82317817    0.02090000
opls_700-1    C    0.02488999    0.02550000    0.82317817    0.02090000
opls_700-2    C    0.47511005    0.52550000    0.17681918    0.02090000
opls_700-3    C    0.97511005    0.02550000    0.17681918    0.02090000
opls_700-4    C    0.47511005    0.47450000    0.17681918    0.02090000
opls_700-5    C    0.97511005    0.97450000    0.17681918    0.02090000
opls_700-6    C    0.52488999    0.47450000    0.82317817    0.02090000
opls_700-7    C    0.02488999    0.97450000    0.82317817    0.02090000
opls_145-8    C    0.48775999    0.55020000    0.07751112    -0.13130000
opls_145-9    C    0.98775999    0.05020000    0.07751112    -0.13160000
opls_145-10    C    0.51224001    0.55020000    0.92248888    -0.13130000
opls_145-11    C    0.01224001    0.05020000    0.92248888    -0.13130000
opls_145-12    C    0.51224001    0.44980000    0.92248888    -0.13110000
opls_145-13    C    0.01224001    0.94980000    0.92248888    -0.13130000
opls_145-14    C    0.48775999    0.44980000    0.07751112    -0.13130000
opls_145-15    C    0.98775999    0.94980000    0.07751112    -0.13160000
opls_700-16    C    0.45033991    0.52535000    0.35442991    0.03050000
opls_700-17    C    0.95033991    0.02535000    0.35442991    0.03050000
opls_700-18    C    0.54965992    0.52535000    0.64557009    0.03050000
opls_700-19    C    0.04965992    0.02535000    0.64557009    0.03050000
opls_700-20    C    0.54965992    0.47465000    0.64557009    0.03050000
opls_700-21    C    0.04965992    0.97465000    0.64557009    0.03050000
opls_700-22    C    0.45033991    0.47465000    0.35442991    0.03050000
opls_700-23    C    0.95033991    0.97465000    0.35442991    0.03050000
opls_700-24    C    0.43408994    0.55002004    0.39259977    0.06780000
opls_700-25    C    0.93408994    0.05002004    0.39259977    0.06780000
opls_700-26    C    0.56590989    0.55002004    0.60740023    0.06780000
opls_700-27    C    0.06590989    0.05002004    0.60740023    0.06780000
opls_700-28    C    0.56590989    0.44997996    0.60740023    0.06780000
opls_700-29    C    0.06590989    0.94997996    0.60740023    0.06780000
opls_700-30    C    0.43408994    0.44997996    0.39259977    0.06780000
opls_700-31    C    0.93408994    0.94997996    0.39259977    0.06780000
opls_145-32    C    0.41245992    0.54754008    0.28461916    -0.12340000
opls_145-33    C    0.91245992    0.04754008    0.28461916    -0.12360000
opls_145-34    C    0.58753991    0.54754008    0.71538084    -0.12340000
opls_145-35    C    0.08753991    0.04754008    0.71538084    -0.12360000
opls_145-36    C    0.58753991    0.45245992    0.71538084    -0.12340000
opls_145-37    C    0.08753991    0.95245992    0.71538084    -0.12340000
opls_145-38    C    0.41245992    0.45245992    0.28461916    -0.12330000
opls_145-39    C    0.91245992    0.95245992    0.28461916    -0.12340000
opls_145-40    C    0.39635992    0.56952004    0.32032937    -0.16610000
opls_145-41    C    0.89635992    0.06952004    0.32032937    -0.16600000
opls_145-42    C    0.60363990    0.56952004    0.67967063    -0.16600000
opls_145-43    C    0.10363990    0.06952004    0.67967063    -0.16600000
opls_145-44    C    0.60363990    0.43047996    0.67967063    -0.16610000
opls_145-45    C    0.10363990    0.93047996    0.67967063    -0.16610000
opls_145-46    C    0.39635992    0.43047996    0.32032937    -0.16610000
opls_145-47    C    0.89635992    0.93047996    0.32032937    -0.16610000
opls_145-48    C    0.40158998    0.59487996    0.45897868    0.19160000
opls_145-49    C    0.90158998    0.09487004    0.45897868    0.19170000
opls_145-50    C    0.59841006    0.59487996    0.54101866    0.19160000
opls_145-51    C    0.09841006    0.09487004    0.54101866    0.19160000
opls_145-52    C    0.59841006    0.40512004    0.54101866    0.19160000
opls_145-53    C    0.09841006    0.90512004    0.54101866    0.19160000
opls_145-54    C    0.40158998    0.40512004    0.45897868    0.19170000
opls_145-55    C    0.90158998    0.90512004    0.45897868    0.19160000
opls_145-56    C    0.42306989    0.59769008    0.56655024    -0.17490000
opls_145-57    C    0.92306989    0.09769008    0.56655024    -0.17490000
opls_145-58    C    0.57692993    0.59769008    0.43344976    -0.17490000
opls_145-59    C    0.07692993    0.09769008    0.43344976    -0.17490000
opls_145-60    C    0.57692993    0.40230992    0.43344976    -0.17490000
opls_145-61    C    0.07692993    0.90230992    0.43344976    -0.17490000
opls_145-62    C    0.42306989    0.40230992    0.56655024    -0.17490000
opls_145-63    C    0.92306989    0.90230992    0.56655024    -0.17490000
opls_145-64    C    0.43883003    0.57515000    0.54555017    -0.12890000
opls_145-65    C    0.93883003    0.07515000    0.54555017    -0.12890000
opls_145-66    C    0.56116997    0.57515000    0.45444983    -0.12890000
opls_145-67    C    0.06116997    0.07515000    0.45444983    -0.12890000
opls_145-68    C    0.56116997    0.42485000    0.45444983    -0.12890000
opls_145-69    C    0.06116997    0.92485000    0.45444983    -0.12890000
opls_145-70    C    0.43883003    0.42485000    0.54555017    -0.12890000
opls_145-71    C    0.93883003    0.92485000    0.54555017    -0.12890000
opls_700-72    C    0.15297005    0.86069008    0.50177834    0.06840000
opls_700-73    C    0.65297005    0.36069008    0.50177834    0.06840000
opls_700-74    C    0.84703000    0.86069008    0.49821901    0.06840000
opls_700-75    C    0.34703000    0.36069008    0.49821901    0.06840000
opls_700-76    C    0.84703000    0.13930992    0.49821901    0.06840000
opls_700-77    C    0.34703000    0.63930992    0.49821901    0.06840000
opls_700-78    C    0.15297005    0.13930992    0.50177834    0.06840000
opls_700-79    C    0.65297005    0.63930992    0.50177834    0.06840000
opls_145-80    C    0.14363993    0.83660000    0.68717976    -0.13040000
opls_145-81    C    0.64363993    0.33660000    0.68717976    -0.13040000
opls_145-82    C    0.85635990    0.83660000    0.31282024    -0.13040000
opls_145-83    C    0.35635990    0.33660000    0.31282024    -0.13040000
opls_145-84    C    0.85635990    0.16340000    0.31282024    -0.13040000
opls_145-85    C    0.35635990    0.66340000    0.31282024    -0.13040000
opls_145-86    C    0.14363993    0.16340000    0.68717976    -0.13040000
opls_145-87    C    0.64363993    0.66340000    0.68717976    -0.13040000
opls_145-88    C    0.15913993    0.81610000    0.75742878    -0.12810000
opls_145-89    C    0.65913993    0.31610000    0.75742878    -0.12810000
opls_145-90    C    0.84085994    0.81610000    0.24256856    -0.12810000
opls_145-91    C    0.34085994    0.31610000    0.24256856    -0.12800000
opls_145-92    C    0.84085994    0.18390000    0.24256856    -0.12810000
opls_145-93    C    0.34085994    0.68390000    0.24256856    -0.12810000
opls_145-94    C    0.15913993    0.18390000    0.75742878    -0.12810000
opls_145-95    C    0.65913993    0.68390000    0.75742878    -0.12810000
opls_700-96    C    0.18406005    0.81947996    0.64160967    0.12720000
opls_700-97    C    0.68406005    0.31947996    0.64160967    0.12720000
opls_700-98    C    0.81593995    0.81947996    0.35839033    0.12720000
opls_700-99    C    0.31593995    0.31947996    0.35839033    0.12720000
opls_700-100    C    0.81593995    0.18052004    0.35839033    0.12720000
opls_700-101    C    0.31593995    0.68052004    0.35839033    0.12720000
opls_700-102    C    0.18406005    0.18052004    0.64160967    0.12720000
opls_700-103    C    0.68406005    0.68052004    0.64160967    0.12720000
opls_145-104    C    0.19339002    0.84307004    0.44894083    -0.11710000
opls_145-105    C    0.69339002    0.34307004    0.44894083    -0.11710000
opls_145-106    C    0.80660998    0.84307004    0.55105917    -0.11710000
opls_145-107    C    0.30660998    0.34307004    0.55105917    -0.11710000
opls_145-108    C    0.80660998    0.15692996    0.55105917    -0.11710000
opls_145-109    C    0.30660998    0.65692996    0.55105917    -0.11710000
opls_145-110    C    0.19339002    0.15692996    0.44894083    -0.11710000
opls_145-111    C    0.69339002    0.65692996    0.44894083    -0.11710000
opls_145-112    C    0.17796007    0.86357996    0.38012883    -0.12580000
opls_145-113    C    0.67796007    0.36357996    0.38012883    -0.12580000
opls_145-114    C    0.82203993    0.86357996    0.61986055    -0.12580000
opls_145-115    C    0.32203993    0.36357996    0.61986055    -0.12580000
opls_145-116    C    0.82203993    0.13642004    0.61986055    -0.12580000
opls_145-117    C    0.32203993    0.63642004    0.61986055    -0.12580000
opls_145-118    C    0.17796007    0.13642004    0.38012883    -0.12580000
opls_145-119    C    0.67796007    0.63642004    0.38012883    -0.12580000
opls_261-120    C    0.20029995    0.79982996    0.73680855    -0.07730000
opls_261-121    C    0.70029995    0.29982996    0.73680855    -0.07730000
opls_261-122    C    0.79970009    0.79982996    0.26318879    -0.07720000
opls_261-123    C    0.29970009    0.29982996    0.26318879    -0.07730000
opls_261-124    C    0.79970009    0.20017004    0.26318879    -0.07730000
opls_261-125    C    0.29970009    0.70017004    0.26318879    -0.07730000
opls_261-126    C    0.20029995    0.20017004    0.73680855    -0.07730000
opls_261-127    C    0.70029995    0.70017004    0.73680855    -0.07730000
opls_261-128    C    0.21466001    0.78445992    0.81778870    -0.08440000
opls_261-129    C    0.71464990    0.28445992    0.81778870    -0.08440000
opls_261-130    C    0.78534997    0.78445992    0.18220865    -0.08440000
opls_261-131    C    0.28534997    0.28445992    0.18220865    -0.08440000
opls_261-132    C    0.78534997    0.21554008    0.18220865    -0.08440000
opls_261-133    C    0.28534997    0.71554008    0.18220865    -0.08440000
opls_261-134    C    0.21466001    0.21554008    0.81778870    -0.08430000
opls_261-135    C    0.71464990    0.71554008    0.81778870    -0.08440000
opls_700-136    C    0.23255991    0.76710992    0.91342055    0.03210000
opls_700-137    C    0.73255991    0.26710992    0.91342055    0.03670000
opls_700-138    C    0.76743992    0.76710992    0.08657945    0.03430000
opls_700-139    C    0.26743992    0.26710992    0.08657945    0.03380000
opls_700-140    C    0.76743992    0.23289008    0.08657945    0.03210000
opls_700-141    C    0.26743992    0.73289008    0.08657945    0.03670000
opls_700-142    C    0.23255991    0.23289008    0.91342055    0.03670000
opls_700-143    C    0.73255991    0.73289008    0.91342055    0.02330000
opls_166-144    C    0.25297991    0.77910992    0.99275915    0.22360000
opls_166-145    C    0.75296998    0.27910000    0.99275915    0.22360000
opls_166-146    C    0.74701992    0.77910992    0.00724085    0.22360000
opls_166-147    C    0.24701992    0.27910000    0.00724085    0.22370000
opls_166-148    C    0.74701992    0.22089008    0.00724085    0.22340000
opls_166-149    C    0.24701992    0.72090000    0.00724085    0.22350000
opls_166-150    C    0.25297991    0.22089008    0.99275915    0.22340000
opls_166-151    C    0.75296998    0.72090000    0.99275915    0.22360000
opls_145-152    C    0.27041993    0.76162996    0.07866127    -0.24880000
opls_145-153    C    0.77041993    0.26162996    0.07866127    -0.25730000
opls_145-154    C    0.72957990    0.76162996    0.92132811    -0.24870000
opls_145-155    C    0.22957990    0.26162996    0.92132811    -0.25360000
opls_145-156    C    0.72957990    0.23835992    0.92132811    -0.24880000
opls_145-157    C    0.22957990    0.73835992    0.92132811    -0.25370000
opls_145-158    C    0.27041993    0.23835992    0.07866127    -0.24880000
opls_145-159    C    0.77041993    0.73835992    0.07866127    -0.25730000
opls_142-160    C    0.13732004    0.88397996    0.45711933    0.07090000
opls_142-161    C    0.63732004    0.38397996    0.45711933    0.07090000
opls_142-162    C    0.86267996    0.88397996    0.54288067    0.07090000
opls_142-163    C    0.36267996    0.38397996    0.54288067    0.07090000
opls_142-164    C    0.86267996    0.11602004    0.54288067    0.07090000
opls_142-165    C    0.36267996    0.61602004    0.54288067    0.07090000
opls_142-166    C    0.13732004    0.11602004    0.45711933    0.07090000
opls_142-167    C    0.63732004    0.61602004    0.45711933    0.07090000
opls_145-168    C    0.43918002    0.50000000    0.45914071    -0.13090000
opls_145-169    C    0.93918002    0.00000000    0.45914071    -0.13090000
opls_145-170    C    0.56081998    0.50000000    0.54085929    -0.13090000
opls_145-171    C    0.06081998    0.00000000    0.54085929    -0.13090000
opls_700-172    C    0.51239990    0.50000000    0.90777874    0.00160000
opls_700-173    C    0.01239990    0.00000000    0.90777874    0.00160000
opls_700-174    C    0.48759992    0.50000000    0.09222126    0.00160000
opls_700-175    C    0.98759992    0.00000000    0.09222126    0.00160000
opls_181-176    C    0.22467994    0.67905000    0.93119065    -0.19680000
opls_181-177    C    0.72467994    0.17905000    0.93119065    -0.19680000
opls_181-178    C    0.77532006    0.67905000    0.06880935    -0.19690000
opls_181-179    C    0.27532006    0.17905000    0.06880935    -0.19690000
opls_181-180    C    0.77532006    0.32095000    0.06880935    -0.19690000
opls_181-181    C    0.27532006    0.82095000    0.06880935    -0.19670000
opls_181-182    C    0.22467994    0.32095000    0.93119065    -0.19690000
opls_181-183    C    0.72467994    0.82095000    0.93119065    -0.19690000
opls_146-184    H    0.47913995    0.57005992    0.12002922    0.11790000
opls_146-185    H    0.97915006    0.07005992    0.12002922    0.23060000
opls_146-186    H    0.52085991    0.57005992    0.87996813    0.11790000
opls_146-187    H    0.02085991    0.07005992    0.87996813    0.11790000
opls_146-188    H    0.52085991    0.42994008    0.87996813    0.11790000
opls_146-189    H    0.02085991    0.92994008    0.87996813    0.11790000
opls_146-190    H    0.47913995    0.42994008    0.12002922    0.11790000
opls_146-191    H    0.97915006    0.92994008    0.12002922    0.23040000
opls_146-192    H    0.40827005    0.52867996    0.16252872    0.12140000
opls_146-193    H    0.90827005    0.02867004    0.16252872    0.11860000
opls_146-194    H    0.59172999    0.52867996    0.83746862    0.12140000
opls_146-195    H    0.09172999    0.02867004    0.83746862    0.11860000
opls_146-196    H    0.59172999    0.47132004    0.83746862    0.12150000
opls_146-197    H    0.09172999    0.97132004    0.83746862    0.12140000
opls_146-198    H    0.40827005    0.47132004    0.16252872    0.12140000
opls_146-199    H    0.90827005    0.97132004    0.16252872    0.12150000
opls_146-200    H    0.38036993    0.56720992    0.22208912    0.11940000
opls_146-201    H    0.88036993    0.06720992    0.22208912    0.11940000
opls_146-202    H    0.61962994    0.56720992    0.77790823    0.11930000
opls_146-203    H    0.11962994    0.06720992    0.77790823    0.11930000
opls_146-204    H    0.61962994    0.43277996    0.77790823    0.11930000
opls_146-205    H    0.11962994    0.93277996    0.77790823    0.11930000
opls_146-206    H    0.38036993    0.43277996    0.22208912    0.11930000
opls_146-207    H    0.88036993    0.93277996    0.22208912    0.11930000
opls_146-208    H    0.42700997    0.61709008    0.67856033    0.12120000
opls_146-209    H    0.92700997    0.11709008    0.67856033    0.12110000
opls_146-210    H    0.57299003    0.61709008    0.32143967    0.12120000
opls_146-211    H    0.07299003    0.11709008    0.32143967    0.12110000
opls_146-212    H    0.57299003    0.38290992    0.32143967    0.12110000
opls_146-213    H    0.07299003    0.88290992    0.32143967    0.12110000
opls_146-214    H    0.42700997    0.38290992    0.67856033    0.12110000
opls_146-215    H    0.92700997    0.88290992    0.67856033    0.12110000
opls_146-216    H    0.45440996    0.57720000    0.65459061    0.11860000
opls_146-217    H    0.95440996    0.07720000    0.65459061    0.11860000
opls_146-218    H    0.54559004    0.57720000    0.34540939    0.11860000
opls_146-219    H    0.04559004    0.07720000    0.34540939    0.11860000
opls_146-220    H    0.54559004    0.42280000    0.34540939    0.11860000
opls_146-221    H    0.04559004    0.92280000    0.34540939    0.11860000
opls_146-222    H    0.45440996    0.42280000    0.65459061    0.11870000
opls_146-223    H    0.95440996    0.92280000    0.65459061    0.11860000
opls_146-224    H    0.12443996    0.83429008    0.78878013    0.11690000
opls_146-225    H    0.62443996    0.33429008    0.78878013    0.11690000
opls_146-226    H    0.87556004    0.83429008    0.21121987    0.11690000
opls_146-227    H    0.37556004    0.33429008    0.21121987    0.11700000
opls_146-228    H    0.87556004    0.16570992    0.21121987    0.11690000
opls_146-229    H    0.37556004    0.66570992    0.21121987    0.11690000
opls_146-230    H    0.12443996    0.16570992    0.78878013    0.11690000
opls_146-231    H    0.62443996    0.66570992    0.78878013    0.11690000
opls_146-232    H    0.15178996    0.79810000    0.91138057    0.11870000
opls_146-233    H    0.65178996    0.29810000    0.91138057    0.11880000
opls_146-234    H    0.84821004    0.79810000    0.08861943    0.11870000
opls_146-235    H    0.34821004    0.29810000    0.08861943    0.11870000
opls_146-236    H    0.84821004    0.20190000    0.08861943    0.11870000
opls_146-237    H    0.34821004    0.70190000    0.08861943    0.11870000
opls_146-238    H    0.15178996    0.20190000    0.91138057    0.11870000
opls_146-239    H    0.65178996    0.70190000    0.91138057    0.11870000
opls_146-240    H    0.21267004    0.84565000    0.35622020    0.11370000
opls_146-241    H    0.71267004    0.34565000    0.35622020    0.11370000
opls_146-242    H    0.78732996    0.84565000    0.64377980    0.11370000
opls_146-243    H    0.28732996    0.34565000    0.64377980    0.11370000
opls_146-244    H    0.78732996    0.15435000    0.64377980    0.11370000
opls_146-245    H    0.28732996    0.65435000    0.64377980    0.11370000
opls_146-246    H    0.21267004    0.15435000    0.35622020    0.11370000
opls_146-247    H    0.71267004    0.65435000    0.35622020    0.11370000
opls_146-248    H    0.18554993    0.88187004    0.23487084    0.11690000
opls_146-249    H    0.68554993    0.38187004    0.23487084    0.11690000
opls_146-250    H    0.81444989    0.88187004    0.76512916    0.11690000
opls_146-251    H    0.31444989    0.38187004    0.76512916    0.11690000
opls_146-252    H    0.81444989    0.11812996    0.76512916    0.11690000
opls_146-253    H    0.31444989    0.61812996    0.76512916    0.11700000
opls_146-254    H    0.18554993    0.11812996    0.23487084    0.11700000
opls_146-255    H    0.68554993    0.61812996    0.23487084    0.11700000
opls_144-256    H    0.85419990    0.09635000    0.62884919    0.11880000
opls_144-257    H    0.35419990    0.59635000    0.62884919    0.11880000
opls_144-258    H    0.14579992    0.09635000    0.37115081    0.11890000
opls_144-259    H    0.64579992    0.59635000    0.37114018    0.11880000
opls_144-260    H    0.14579992    0.90365000    0.37115081    0.11880000
opls_144-261    H    0.64579992    0.40365000    0.37114018    0.11890000
opls_144-262    H    0.85419990    0.90365000    0.62884919    0.11880000
opls_144-263    H    0.35419990    0.40365000    0.62884919    0.11880000
opls_146-264    H    0.42048004    0.50000000    0.60307856    0.11590000
opls_146-265    H    0.92048004    0.00000000    0.60307856    0.11590000
opls_146-266    H    0.57951996    0.50000000    0.39691082    0.11590000
opls_146-267    H    0.07952000    0.00000000    0.39691879    0.11590000
opls_146-268    H    0.28623007    0.77012996    0.14290989    0.12120000
opls_185-269    H    0.22657993    0.65625992    0.94288864    0.07390000
opls_185-270    H    0.22382001    0.68440000    0.65728933    0.07350000
opls_185-271    H    0.20780985    0.68515992    0.12383027    0.07370000
opls_146-272    H    0.78623007    0.27012996    0.14290989    0.12120000
opls_185-273    H    0.72657993    0.15625992    0.94288864    0.07400000
opls_185-274    H    0.72382001    0.18440000    0.65728933    0.07350000
opls_185-275    H    0.70780985    0.18515992    0.12383027    0.07370000
opls_146-276    H    0.71376993    0.77012996    0.85709011    0.12120000
opls_185-277    H    0.77341994    0.65625992    0.05710871    0.07390000
opls_185-278    H    0.77617999    0.68440000    0.34271067    0.07350000
opls_185-279    H    0.79218997    0.68515992    0.87615911    0.07370000
opls_146-280    H    0.21376993    0.27012996    0.85709011    0.12120000
opls_185-281    H    0.27341994    0.15625992    0.05710871    0.07390000
opls_185-282    H    0.27617999    0.18440000    0.34271067    0.07350000
opls_185-283    H    0.29218997    0.18515992    0.87615911    0.07370000
opls_146-284    H    0.71376993    0.22987004    0.85709011    0.11810000
opls_185-285    H    0.77341994    0.34374008    0.05710871    0.07390000
opls_185-286    H    0.77617999    0.31560000    0.34271067    0.07350000
opls_185-287    H    0.79218997    0.31484008    0.87615911    0.07370000
opls_146-288    H    0.21376993    0.72987004    0.85709011    0.11810000
opls_185-289    H    0.27341994    0.84374008    0.05710871    0.07390000
opls_185-290    H    0.27617999    0.81560000    0.34271067    0.07350000
opls_185-291    H    0.29218997    0.81484008    0.87615911    0.07380000
opls_146-292    H    0.28623007    0.22987004    0.14290989    0.11810000
opls_185-293    H    0.22657993    0.34374008    0.94288864    0.07390000
opls_185-294    H    0.22382001    0.31560000    0.65728933    0.07350000
opls_185-295    H    0.20780985    0.31484008    0.12383027    0.07370000
opls_146-296    H    0.78623007    0.72987004    0.14290989    0.11810000
opls_185-297    H    0.72657993    0.84374008    0.94288864    0.07390000
opls_185-298    H    0.72382001    0.81560000    0.65728933    0.07350000
opls_185-299    H    0.70780985    0.81484008    0.12383027    0.07370000
opls_750-300    N    0.11402996    0.88177004    0.53112956    -0.33670000
opls_750-301    N    0.61402996    0.38177004    0.53112956    -0.33680000
opls_750-302    N    0.88597004    0.88177004    0.46887044    -0.33680000
opls_750-303    N    0.38597004    0.38177004    0.46887044    -0.33680000
opls_750-304    N    0.88597004    0.11822996    0.46887044    -0.33670000
opls_750-305    N    0.38597004    0.61822996    0.46887044    -0.33680000
opls_750-306    N    0.11402996    0.11822996    0.53112956    -0.33660000
opls_750-307    N    0.61402996    0.61822996    0.53112956    -0.33680000
opls_179-308    O    0.25494991    0.80822996    0.98310910    -0.20560000
opls_179-309    O    0.75494991    0.30822996    0.98310910    -0.20550000
opls_179-310    O    0.74504992    0.80822996    0.01689090    -0.20560000
opls_179-311    O    0.24504992    0.30822996    0.01689090    -0.20580000
opls_179-312    O    0.74504992    0.19177004    0.01689090    -0.20560000
opls_179-313    O    0.24504992    0.69177004    0.01689090    -0.20590000
opls_179-314    O    0.25494991    0.19177004    0.98310910    -0.20560000
opls_179-315    O    0.75494991    0.69177004    0.98310910    -0.20560000
