#======================================================================
# Crystal Data Generated By AuToFF
#----------------------------------------------------------------------

data_AuToFF_phase_1

_cell_length_a                         19.0061
_cell_length_b                         19.0061
_cell_length_c                         3.4580
_cell_angle_alpha                      90.00
_cell_angle_beta                       90.00
_cell_angle_gamma                      120.00
_symmetry_space_group_name_H-M_alt     'P 1'
_symmetry_space_group_IT_number        1

loop_
_space_group_symop_operation_xyz
   'x, y, z'

loop_
   _atom_site_label
   _atom_site_type_symbol
   _atom_site_fract_x
   _atom_site_fract_y
   _atom_site_fract_z
   _atom_site_charge
opls_700-0    C    0.43380973    0.58779983    0.50000000    0.06550000
opls_145-1    C    0.39855991    0.50203982    0.50000000    -0.12910000
opls_145-2    C    0.44613000    0.46488985    0.50000000    -0.11820000
opls_700-3    C    0.53117958    0.51154968    0.50000000    0.09700000
opls_145-4    C    0.56713009    0.59610979    0.50000000    -0.11900000
opls_145-5    C    0.51994004    0.63359998    0.50000000    -0.12970000
opls_142-6    C    0.58514014    0.47580009    0.50000000    -0.18090000
opls_142-7    C    0.55936004    0.39587005    0.50000000    -0.21350000
opls_642-8    C    0.61574987    0.36396985    0.50000000    0.34140000
opls_700-9    C    0.38194011    0.62851000    0.50000000    0.06360000
opls_145-10    C    0.41754994    0.71383987    0.50000000    -0.13090000
opls_700-11    C    0.41220005    0.84601000    0.50000000    0.06550000
opls_145-12    C    0.49795974    0.89651982    0.50000000    -0.12910000
opls_145-13    C    0.53510978    0.98123971    0.50000000    -0.11820000
opls_700-14    C    0.48844990    0.01963029    0.50000000    0.09700000
opls_145-15    C    0.40388971    0.97101964    0.50000000    -0.11900000
opls_145-16    C    0.36639983    0.88633985    0.50000000    -0.12970000
opls_142-17    C    0.52419974    0.10933992    0.50000000    -0.18090000
opls_142-18    C    0.60412999    0.16349013    0.50000000    -0.21350000
opls_642-19    C    0.63602988    0.25177995    0.50000000    0.34140000
opls_700-20    C    0.37148970    0.75342973    0.50000000    0.06360000
opls_145-21    C    0.28615963    0.70370971    0.50000000    -0.13090000
opls_700-22    C    0.15398992    0.56618956    0.50000000    0.06550000
opls_145-23    C    0.10348004    0.60143975    0.50000000    -0.12910000
opls_145-24    C    0.01875991    0.55386983    0.50000000    -0.11820000
opls_700-25    C    0.98037000    0.46882004    0.50000000    0.09700000
opls_145-26    C    0.02897990    0.43286996    0.50000000    -0.11890000
opls_145-27    C    0.11365983    0.48005956    0.50000000    -0.12960000
opls_142-28    C    0.89066012    0.41485999    0.50000000    -0.18090000
opls_142-29    C    0.83650997    0.44063981    0.50000000    -0.21350000
opls_642-30    C    0.74821995    0.38424960    0.50000000    0.34140000
opls_700-31    C    0.24656989    0.61805967    0.50000000    0.06360000
opls_145-32    C    0.29629012    0.58244982    0.50000000    -0.13080000
opls_641-33    N    0.58536969    0.28264976    0.50000000    -0.43020000
opls_641-34    N    0.71734982    0.30271990    0.50000000    -0.43010000
opls_641-35    N    0.69727967    0.41462973    0.50000000    -0.43030000
opls_146-36    H    0.33415019    0.46101009    0.50000000    0.09770000
opls_146-37    H    0.41504977    0.39941992    0.50000000    0.10550000
opls_146-38    H    0.63267022    0.63386001    0.50000000    0.11730000
opls_146-39    H    0.55364000    0.69879956    0.50000000    0.09770000
opls_144-40    H    0.65004014    0.51793980    0.50000000    0.11660000
opls_144-41    H    0.49564019    0.35115011    0.50000000    0.10120000
opls_146-42    H    0.48166011    0.74974984    0.50000000    0.24790000
opls_146-43    H    0.53898964    0.87313978    0.50000000    0.09770000
opls_146-44    H    0.60057977    0.01562962    0.50000000    0.10540000
opls_146-45    H    0.36613980    0.99880983    0.50000000    0.11730000
opls_146-46    H    0.30120000    0.85484001    0.50000000    0.09770000
opls_144-47    H    0.48206026    0.13210027    0.50000000    0.11660000
opls_144-48    H    0.64884981    0.14448987    0.50000000    0.10120000
opls_146-49    H    0.25025003    0.73190998    0.50000000    0.24800000
opls_146-50    H    0.12685987    0.66584952    0.50000000    0.09770000
opls_146-51    H    0.98437016    0.58494985    0.50000000    0.10540000
opls_146-52    H    0.00118998    0.36733016    0.50000000    0.11730000
opls_146-53    H    0.14515970    0.44635982    0.50000000    0.09770000
opls_144-54    H    0.86790013    0.34995993    0.50000000    0.11660000
opls_144-55    H    0.85551000    0.50436002    0.50000000    0.10130000
opls_146-56    H    0.26808955    0.51833956    0.50000000    0.24790000
