#======================================================================
# Crystal Data Generated By AuToFF
#----------------------------------------------------------------------

data_AuToFF_phase_1

_cell_length_a                         7.4664
_cell_length_b                         16.6879
_cell_length_c                         9.5758
_cell_angle_alpha                      90.00
_cell_angle_beta                       93.48
_cell_angle_gamma                      90.00
_symmetry_space_group_name_H-M_alt     'P 1'
_symmetry_space_group_IT_number        1

loop_
_space_group_symop_operation_xyz
   'x, y, z'

loop_
   _atom_site_label
   _atom_site_type_symbol
   _atom_site_fract_x
   _atom_site_fract_y
   _atom_site_fract_z
   _atom_site_charge
opls_750-0    N    0.23832008    0.71397000    0.16333965    -0.29880000
opls_750-1    N    0.67024999    0.13750981    0.78674990    -0.27270000
opls_750-2    N    0.76167984    0.71397000    0.83665930    -0.29880000
opls_750-3    N    0.32975001    0.13750981    0.21325010    -0.27270000
opls_142-4    C    0.37098997    0.75913986    0.21128004    0.01410000
opls_700-5    C    0.62705073    0.84234985    0.83604935    0.06910000
opls_145-6    C    0.52480976    0.89681985    0.74647943    -0.08350000
opls_145-7    C    0.54872008    0.97768024    0.77039941    -0.08310000
opls_700-8    C    0.67401104    0.00514984    0.88531008    0.05470000
opls_145-9    C    0.76467090    0.95060014    0.98290982    -0.08360000
opls_145-10    C    0.74246016    0.86976013    0.95788921    -0.08310000
opls_142-11    C    0.26863065    0.08825976    0.10936042    0.01590000
opls_145-12    C    0.80310065    0.63846020    0.77648010    0.21710000
opls_145-13    C    0.97755982    0.61107988    0.80594929    -0.17150000
opls_145-14    C    0.03718032    0.54682974    0.72717961    -0.09830000
opls_700-15    C    0.92272966    0.50953026    0.61621951    0.07300000
opls_145-16    C    0.74467054    0.53336010    0.59319929    -0.11530000
opls_145-17    C    0.68388059    0.59661012    0.67457931    -0.14150000
opls_700-18    C    0.08615028    0.33625981    0.38753018    0.07130000
opls_145-19    C    0.01679068    0.28386016    0.70585010    -0.11320000
opls_145-20    C    0.93599056    0.22186015    0.77628969    -0.14380000
opls_145-21    C    0.75058969    0.21144003    0.75459923    0.22030000
opls_145-22    C    0.64747992    0.26736977    0.67087984    -0.15300000
opls_145-23    C    0.72845993    0.32952978    0.60023938    -0.11170000
opls_142-24    C    0.62901003    0.75913986    0.78871996    0.01410000
opls_700-25    C    0.37295053    0.84234985    0.16394961    0.06910000
opls_145-26    C    0.47519015    0.89681985    0.25351952    -0.08340000
opls_145-27    C    0.45127983    0.97768024    0.22959954    -0.08300000
opls_700-28    C    0.32599030    0.00514984    0.11468992    0.05470000
opls_145-29    C    0.23533044    0.95060014    0.01709018    -0.08360000
opls_145-30    C    0.25753975    0.86976013    0.04210975    -0.08310000
opls_142-31    C    0.73137069    0.08825976    0.89063958    0.01590000
opls_145-32    C    0.19690069    0.63846020    0.22351990    0.21710000
opls_145-33    C    0.02244010    0.61107988    0.19404967    -0.17150000
opls_145-34    C    0.96281968    0.54682974    0.27282039    -0.09830000
opls_700-35    C    0.07727026    0.50953026    0.38377945    0.07300000
opls_145-36    C    0.25533072    0.53336010    0.40679966    -0.11510000
opls_145-37    C    0.31612067    0.59661012    0.32541964    -0.14150000
opls_700-38    C    0.91384972    0.33625981    0.61246982    0.07130000
opls_145-39    C    0.98321066    0.28386016    0.29414990    -0.11320000
opls_145-40    C    0.06401078    0.22186015    0.22371031    -0.14370000
opls_145-41    C    0.24941023    0.21144003    0.24539972    0.22040000
opls_145-42    C    0.35252008    0.26736977    0.32912016    -0.15300000
opls_145-43    C    0.27153999    0.32952978    0.39975958    -0.11170000
opls_141-44    C    0.00000067    0.46243026    0.50000000    -0.02360000
opls_141-45    C    0.00000067    0.38302003    0.50000000    -0.02350000
opls_144-46    H    0.46512984    0.74127002    0.30414035    0.02830000
opls_146-47    H    0.43453091    0.87697973    0.65224019    0.04730000
opls_146-48    H    0.85985095    0.97051996    0.07364942    0.04800000
opls_146-49    H    0.82112111    0.82856021    0.02924006    0.09300000
opls_144-50    H    0.15793961    0.10434027    0.02968994    0.05110000
opls_146-51    H    0.07116028    0.64381977    0.88151959    0.08810000
opls_146-52    H    0.17621090    0.53041006    0.74355940    0.10630000
opls_146-53    H    0.65699959    0.50684029    0.50430942    0.05070000
opls_146-54    H    0.54710012    0.61476998    0.65152980    0.26420000
opls_146-55    H    0.16051983    0.28703971    0.71361941    0.12390000
opls_146-56    H    0.02012065    0.17819977    0.83466937    0.05400000
opls_146-57    H    0.50531014    0.25884024    0.65145970    0.12510000
opls_146-58    H    0.64892082    0.36796002    0.52469942    0.05790000
opls_146-59    H    0.47679103    0.01884000    0.69424008    0.10300000
opls_144-60    H    0.53487016    0.74127002    0.69585965    0.02830000
opls_146-61    H    0.56547043    0.87697973    0.34775981    0.04730000
opls_146-62    H    0.14015031    0.97051996    0.92634953    0.04800000
opls_146-63    H    0.17888023    0.82856021    0.97075994    0.09300000
opls_144-64    H    0.84206039    0.10434027    0.97031006    0.05100000
opls_146-65    H    0.92883972    0.64381977    0.11848041    0.08810000
opls_146-66    H    0.82379036    0.53041006    0.25643955    0.10630000
opls_146-67    H    0.34300033    0.50684029    0.49568953    0.05070000
opls_146-68    H    0.45289988    0.61476998    0.34847020    0.26420000
opls_146-69    H    0.83948009    0.28703971    0.28637954    0.12390000
opls_146-70    H    0.97988061    0.17819977    0.16532958    0.05400000
opls_146-71    H    0.49468986    0.25884024    0.34854030    0.12510000
opls_146-72    H    0.35108044    0.36796002    0.47529954    0.05790000
opls_146-73    H    0.52321031    0.01884000    0.30575992    0.10300000
