#======================================================================
# Crystal Data Generated By AuToFF
#----------------------------------------------------------------------

data_AuToFF_phase_1

_cell_length_a                         26.6500
_cell_length_b                         26.6500
_cell_length_c                         3.5500
_cell_angle_alpha                      90.00
_cell_angle_beta                       90.00
_cell_angle_gamma                      90.00
_symmetry_space_group_name_H-M_alt     'P 1'
_symmetry_space_group_IT_number        1

loop_
_space_group_symop_operation_xyz
   'x, y, z'

loop_
   _atom_site_label
   _atom_site_type_symbol
   _atom_site_fract_x
   _atom_site_fract_y
   _atom_site_fract_z
   _atom_site_charge
opls_700-0    C    0.02712983    0.50000000    0.50000000    0.09230000
opls_145-1    C    0.13009006    0.50000000    0.50000000    -0.24250000
opls_700-2    C    0.97287017    0.50000000    0.50000000    0.09230000
opls_145-3    C    0.86990994    0.50000000    0.50000000    -0.24250000
opls_700-4    C    0.50000000    0.02712983    0.50000000    0.09230000
opls_145-5    C    0.50000000    0.13009006    0.50000000    -0.24250000
opls_700-6    C    0.50000000    0.97287017    0.50000000    0.09230000
opls_145-7    C    0.50000000    0.86990994    0.50000000    -0.24250000
opls_145-8    C    0.05329981    0.45570994    0.50000000    -0.18600000
opls_145-9    C    0.10447017    0.45570994    0.50000000    -0.11310000
opls_166-10    C    0.26281013    0.47452983    0.50000000    0.18500000
opls_145-11    C    0.30644991    0.44741013    0.50000000    -0.21110000
opls_716-12    C    0.34987017    0.47464991    0.50000000    -0.02360000
opls_543-13    C    0.39787992    0.45912008    0.50000000    0.39720000
opls_145-14    C    0.94670019    0.54429006    0.50000000    -0.18600000
opls_145-15    C    0.89552983    0.54429006    0.50000000    -0.11310000
opls_166-16    C    0.73718987    0.52547017    0.50000000    0.18500000
opls_145-17    C    0.69355009    0.55258987    0.50000000    -0.21110000
opls_716-18    C    0.65012983    0.52535009    0.50000000    -0.02360000
opls_543-19    C    0.60212008    0.54087992    0.50000000    0.39720000
opls_145-20    C    0.54429006    0.05329981    0.50000000    -0.18600000
opls_145-21    C    0.54429006    0.10447017    0.50000000    -0.11310000
opls_166-22    C    0.52547017    0.26281013    0.50000000    0.18500000
opls_145-23    C    0.55258987    0.30644991    0.50000000    -0.21110000
opls_716-24    C    0.52535009    0.34987017    0.50000000    -0.02360000
opls_543-25    C    0.54087992    0.39787992    0.50000000    0.39720000
opls_145-26    C    0.45570994    0.94670019    0.50000000    -0.18600000
opls_145-27    C    0.45570994    0.89552983    0.50000000    -0.11310000
opls_166-28    C    0.47452983    0.73718987    0.50000000    0.18500000
opls_145-29    C    0.44741013    0.69355009    0.50000000    -0.21110000
opls_716-30    C    0.47464991    0.65012983    0.50000000    -0.02360000
opls_543-31    C    0.45912008    0.60212008    0.50000000    0.39720000
opls_145-32    C    0.94670019    0.45570994    0.50000000    -0.18600000
opls_145-33    C    0.89552983    0.45570994    0.50000000    -0.11310000
opls_166-34    C    0.73718987    0.47452983    0.50000000    0.18500000
opls_145-35    C    0.69355009    0.44741013    0.50000000    -0.21110000
opls_716-36    C    0.65012983    0.47464991    0.50000000    -0.02360000
opls_543-37    C    0.60212008    0.45912008    0.50000000    0.39720000
opls_145-38    C    0.05329981    0.54429006    0.50000000    -0.18600000
opls_145-39    C    0.10447017    0.54429006    0.50000000    -0.11310000
opls_166-40    C    0.26281013    0.52547017    0.50000000    0.18500000
opls_145-41    C    0.30644991    0.55258987    0.50000000    -0.21110000
opls_716-42    C    0.34987017    0.52535009    0.50000000    -0.02360000
opls_543-43    C    0.39787992    0.54087992    0.50000000    0.39720000
opls_145-44    C    0.45570994    0.05329981    0.50000000    -0.18600000
opls_145-45    C    0.45570994    0.10447017    0.50000000    -0.11300000
opls_166-46    C    0.47452983    0.26281013    0.50000000    0.18500000
opls_145-47    C    0.44741013    0.30644991    0.50000000    -0.21110000
opls_716-48    C    0.47464991    0.34987017    0.50000000    -0.02360000
opls_543-49    C    0.45912008    0.39787992    0.50000000    0.39730000
opls_145-50    C    0.54429006    0.94670019    0.50000000    -0.18600000
opls_145-51    C    0.54429006    0.89552983    0.50000000    -0.11300000
opls_166-52    C    0.52547017    0.73718987    0.50000000    0.18500000
opls_145-53    C    0.55258987    0.69355009    0.50000000    -0.21110000
opls_716-54    C    0.52535009    0.65012983    0.50000000    -0.02360000
opls_543-55    C    0.54087992    0.60212008    0.50000000    0.39720000
MOF2_B_2-56    B    0.18692008    0.50000000    0.50000000    0.59230000
MOF2_B_2-57    B    0.81307992    0.50000000    0.50000000    0.59230000
MOF2_B_2-58    B    0.50000000    0.18692008    0.50000000    0.59250000
MOF2_B_2-59    B    0.50000000    0.81307992    0.50000000    0.59230000
opls_542-60    N    0.43026004    0.50000000    0.50000000    -0.38770000
opls_542-61    N    0.56973996    0.50000000    0.50000000    -0.38780000
opls_542-62    N    0.50000000    0.43026004    0.50000000    -0.38780000
opls_542-63    N    0.50000000    0.56973996    0.50000000    -0.38770000
opls_750-64    N    0.41198011    0.41198011    0.50000000    -0.35380000
opls_750-65    N    0.58801989    0.58801989    0.50000000    -0.35380000
opls_750-66    N    0.58801989    0.41198011    0.50000000    -0.35380000
opls_750-67    N    0.41198011    0.58801989    0.50000000    -0.35370000
opls_167-68    O    0.21603002    0.45501013    0.50000000    -0.31730000
opls_167-69    O    0.78396998    0.54498987    0.50000000    -0.31730000
opls_167-70    O    0.54498987    0.21603002    0.50000000    -0.31730000
opls_167-71    O    0.45501013    0.78396998    0.50000000    -0.31730000
opls_167-72    O    0.78396998    0.45501013    0.50000000    -0.31720000
opls_167-73    O    0.21603002    0.54498987    0.50000000    -0.31730000
opls_167-74    O    0.45501013    0.21603002    0.50000000    -0.31730000
opls_167-75    O    0.54498987    0.78396998    0.50000000    -0.31730000
opls_146-76    H    0.03727992    0.41884015    0.50000000    0.09830000
opls_146-77    H    0.12441013    0.42012008    0.50000000    0.11460000
opls_146-78    H    0.30593996    0.40683002    0.50000000    0.12490000
opls_146-79    H    0.96272008    0.58115985    0.50000000    0.09830000
opls_146-80    H    0.87558987    0.57987992    0.50000000    0.11460000
opls_146-81    H    0.69406004    0.59316998    0.50000000    0.12490000
opls_146-82    H    0.58115985    0.03727992    0.50000000    0.09830000
opls_146-83    H    0.57987992    0.12441013    0.50000000    0.11460000
opls_146-84    H    0.59316998    0.30593996    0.50000000    0.12490000
opls_146-85    H    0.41884015    0.96272008    0.50000000    0.09840000
opls_146-86    H    0.42012008    0.87558987    0.50000000    0.11460000
opls_146-87    H    0.40683002    0.69406004    0.50000000    0.12490000
opls_146-88    H    0.96272008    0.41884015    0.50000000    0.09830000
opls_146-89    H    0.87558987    0.42012008    0.50000000    0.11460000
opls_146-90    H    0.69406004    0.40683002    0.50000000    0.12490000
opls_146-91    H    0.03727992    0.58115985    0.50000000    0.09830000
opls_146-92    H    0.12441013    0.57987992    0.50000000    0.11460000
opls_146-93    H    0.30593996    0.59316998    0.50000000    0.12490000
opls_146-94    H    0.41884015    0.03727992    0.50000000    0.09830000
opls_146-95    H    0.42012008    0.12441013    0.50000000    0.11460000
opls_146-96    H    0.40683002    0.30593996    0.50000000    0.12490000
opls_146-97    H    0.58115985    0.96272008    0.50000000    0.09830000
opls_146-98    H    0.57987992    0.87558987    0.50000000    0.11470000
opls_146-99    H    0.59316998    0.69406004    0.50000000    0.12490000
F2_Co4+2-100    Co    0.50000000    0.50000000    0.50000000    0.64570000
