#======================================================================
# Crystal Data Generated By AuToFF
#----------------------------------------------------------------------

data_AuToFF_phase_1

_cell_length_a                         26.3000
_cell_length_b                         26.4200
_cell_length_c                         3.6500
_cell_angle_alpha                      107.82
_cell_angle_beta                       70.59
_cell_angle_gamma                      119.79
_symmetry_space_group_name_H-M_alt     'P 1'
_symmetry_space_group_IT_number        1

loop_
_space_group_symop_operation_xyz
   'x, y, z'

loop_
   _atom_site_label
   _atom_site_type_symbol
   _atom_site_fract_x
   _atom_site_fract_y
   _atom_site_fract_z
   _atom_site_charge
opls_145-0    C    0.46044992    0.85073018    0.35449921    -0.15830000
opls_523-1    C    0.42589011    0.78994018    0.38041078    -0.11860000
opls_700-2    C    0.45346006    0.75485997    0.36663964    0.01240000
opls_523-3    C    0.51649014    0.78199033    0.32350088    -0.12990000
opls_145-4    C    0.55102027    0.84273031    0.29643041    -0.16690000
opls_700-5    C    0.52342012    0.87790006    0.31612875    0.11970000
opls_531-6    C    0.41676005    0.69028993    0.39335918    0.35640000
opls_531-7    C    0.40999003    0.59830999    0.42194831    0.35710000
opls_531-8    C    0.32307027    0.60418010    0.42171830    0.35710000
opls_700-9    C    0.25758007    0.57481015    0.42523923    0.01060000
opls_700-10    C    0.43927015    0.56259026    0.42825000    0.01240000
opls_523-11    C    0.22348998    0.51255010    0.40890848    -0.11860000
opls_145-12    C    0.16190014    0.48482022    0.40950120    -0.15490000
opls_700-13    C    0.13303986    0.51880007    0.42479100    0.11970000
opls_145-14    C    0.16682008    0.58101021    0.44739100    -0.16290000
opls_523-15    C    0.22845000    0.60872025    0.44517052    -0.16100000
opls_523-16    C    0.50162019    0.58942995    0.41258865    -0.16100000
opls_145-17    C    0.52943014    0.55554006    0.40994058    -0.08840000
opls_700-18    C    0.49541016    0.49390009    0.42293027    0.13050000
opls_145-19    C    0.43299985    0.46739997    0.44729074    -0.15830000
opls_523-20    C    0.40517989    0.50125003    0.44946110    -0.11870000
opls_142-21    C    0.52266995    0.45614997    0.42423072    -0.10400000
opls_142-22    C    0.58133005    0.46948986    0.27830972    -0.10400000
opls_145-23    C    0.57456001    0.37009008    0.29246126    -0.08840000
opls_523-24    C    0.60236001    0.33619989    0.28986922    -0.15830000
opls_700-25    C    0.66470998    0.36304007    0.27442903    0.01240000
opls_523-26    C    0.69880004    0.42438003    0.25335948    -0.12990000
opls_145-27    C    0.67098991    0.45822988    0.25547086    -0.15830000
opls_700-28    C    0.60857984    0.43173003    0.27963965    0.13050000
opls_531-29    C    0.69398009    0.32730998    0.28081919    0.35710000
opls_531-30    C    0.78088995    0.32144023    0.28134998    0.35710000
opls_531-31    C    0.68720002    0.23532993    0.30931985    0.35640000
opls_700-32    C    0.65050007    0.17074990    0.33588901    0.01240000
opls_700-33    C    0.84636974    0.35082995    0.27807086    0.01060000
opls_523-34    C    0.67805997    0.13567009    0.32215030    -0.11870000
opls_145-35    C    0.64350990    0.07489007    0.34795866    -0.15830000
opls_700-36    C    0.58054001    0.04770996    0.38622001    0.11910000
opls_145-37    C    0.55293995    0.08289005    0.40588001    -0.12950000
opls_523-38    C    0.58748003    0.14362991    0.37888917    -0.08840000
opls_523-39    C    0.88045996    0.41309009    0.29454020    -0.11870000
opls_145-40    C    0.94204010    0.44081021    0.29410967    -0.15490000
opls_700-41    C    0.97088998    0.40683015    0.27882872    0.11940000
opls_145-42    C    0.93711979    0.34463003    0.25616089    -0.16290000
opls_523-43    C    0.87549015    0.31691013    0.25821919    -0.15830000
opls_142-44    C    0.56205987    0.94187998    0.28071893    -0.10590000
opls_142-45    C    0.54188989    0.98373014    0.42160034    -0.10420000
opls_142-46    C    0.06786021    0.49153028    0.42766023    -0.10590000
opls_142-47    C    0.03607993    0.43409011    0.27600077    -0.10420000
opls_520-48    N    0.44309020    0.65742014    0.40118839    -0.41470000
opls_520-49    N    0.35008021    0.57195024    0.42940006    -0.42730000
opls_520-50    N    0.35668020    0.66339025    0.40567064    -0.41480000
opls_520-51    N    0.75387979    0.35367981    0.27358861    -0.42730000
opls_520-52    N    0.74728018    0.26223009    0.29722955    -0.41490000
opls_520-53    N    0.66088016    0.26820007    0.30141987    -0.41480000
opls_146-54    H    0.43779021    0.87565031    0.35352904    0.12150000
opls_526-55    H    0.37757000    0.77011004    0.40697109    0.11580000
opls_526-56    H    0.53905022    0.75615021    0.31116878    0.11590000
opls_146-57    H    0.59947021    0.86253019    0.26427908    0.11590000
opls_526-58    H    0.24447979    0.48533996    0.39841057    0.11590000
opls_146-59    H    0.13696005    0.43713022    0.40759919    0.11830000
opls_146-60    H    0.14558012    0.60813014    0.46048980    0.11600000
opls_526-61    H    0.25348017    0.65674016    0.45765891    0.10770000
opls_526-62    H    0.52888994    0.63677011    0.40255960    0.13200000
opls_146-63    H    0.57716994    0.57815024    0.40682070    0.12020000
opls_146-64    H    0.40573008    0.42021018    0.46269849    0.12390000
opls_526-65    H    0.35697000    0.47945001    0.46618994    0.11620000
opls_144-66    H    0.49264023    0.41574998    0.54959822    0.11600000
opls_144-67    H    0.61136983    0.50987995    0.15293042    0.11750000
opls_146-68    H    0.52681977    0.34747002    0.29540127    0.11980000
opls_526-69    H    0.57510005    0.28884984    0.29976852    0.12390000
opls_526-70    H    0.74699995    0.44619007    0.23679873    0.11570000
opls_146-71    H    0.69825984    0.50543013    0.24018106    0.08240000
opls_526-72    H    0.72639014    0.15549999    0.29569910    0.11570000
opls_146-73    H    0.66616993    0.04995987    0.34896127    0.12130000
opls_146-74    H    0.50449001    0.06308016    0.43793109    0.11590000
opls_526-75    H    0.56491998    0.16947004    0.39117114    0.11590000
opls_526-76    H    0.85946989    0.44029009    0.30499978    0.11720000
opls_146-77    H    0.96696992    0.48850990    0.29610014    0.11650000
opls_146-78    H    0.95835990    0.31749989    0.24308863    0.11570000
opls_526-79    H    0.85047005    0.26889013    0.24566003    0.10770000
opls_144-80    H    0.60896004    0.95447025    0.13524026    0.12420000
opls_144-81    H    0.49500003    0.97115022    0.56709081    0.12270000
opls_144-82    H    0.04594005    0.52056992    0.55600902    0.12190000
opls_144-83    H    0.05799000    0.40506008    0.14766967    0.12390000
