#======================================================================
# Crystal Data Generated By AuToFF
#----------------------------------------------------------------------

data_AuToFF_phase_1

_cell_length_a                         32.9600
_cell_length_b                         32.9600
_cell_length_c                         7.0000
_cell_angle_alpha                      90.00
_cell_angle_beta                       90.00
_cell_angle_gamma                      120.00
_symmetry_space_group_name_H-M_alt     'P 1'
_symmetry_space_group_IT_number        1

loop_
_space_group_symop_operation_xyz
   'x, y, z'

loop_
   _atom_site_label
   _atom_site_type_symbol
   _atom_site_fract_x
   _atom_site_fract_y
   _atom_site_fract_z
   _atom_site_charge
opls_145-0    C    0.34631011    0.21850008    0.25000000    -0.07810000
opls_145-1    C    0.29448011    0.17965016    0.25000000    -0.07810000
opls_700-2    C    0.28151013    0.12782001    0.25000000    -0.04050000
opls_235-3    C    0.43699003    0.24437994    0.25000000    0.39120000
opls_142-4    C    0.56284997    0.25586984    0.25000000    -0.01740000
opls_700-5    C    0.61476980    0.29452989    0.25000000    -0.06310000
opls_231-6    C    0.62809004    0.34647985    0.25000000    0.20620000
opls_145-7    C    0.32036008    0.11482998    0.25000000    -0.07810000
opls_145-8    C    0.37219007    0.15367991    0.25000000    -0.07810000
opls_700-9    C    0.38515005    0.20551005    0.25000000    -0.04050000
opls_235-10    C    0.22968016    0.08895012    0.25000000    0.39130000
opls_142-11    C    0.10381003    0.07745987    0.25000000    -0.01730000
opls_700-12    C    0.05189991    0.03879983    0.25000000    -0.06310000
opls_231-13    C    0.03857997    0.98684987    0.25000000    0.20640000
opls_145-14    C    0.78149989    0.12780985    0.25000000    -0.07810000
opls_145-15    C    0.82035006    0.11482998    0.25000000    -0.07810000
opls_700-16    C    0.87217998    0.15369007    0.25000000    -0.04050000
opls_235-17    C    0.75561996    0.19261006    0.25000000    0.39120000
opls_142-18    C    0.74412989    0.30698005    0.25000000    -0.01740000
opls_700-19    C    0.70547004    0.32023984    0.25000000    -0.06310000
opls_231-20    C    0.65352007    0.28160992    0.25000000    0.20610000
opls_145-21    C    0.88517005    0.20553002    0.25000000    -0.07810000
opls_145-22    C    0.84631987    0.21850989    0.25000000    -0.07810000
opls_700-23    C    0.79448990    0.17964000    0.25000000    -0.04050000
opls_235-24    C    0.91104998    0.14072982    0.25000000    0.39130000
opls_142-25    C    0.92253999    0.02635001    0.25000000    -0.01730000
opls_700-26    C    0.96119990    0.01310003    0.25000000    -0.06310000
opls_145-27    C    0.87219000    0.65369007    0.25000000    -0.07820000
opls_145-28    C    0.88516982    0.70551986    0.25000000    -0.07810000
opls_700-29    C    0.84630989    0.71848992    0.25000000    -0.04050000
opls_235-30    C    0.80739001    0.56301000    0.25000000    0.39130000
opls_142-31    C    0.69302014    0.43715010    0.25000000    -0.01740000
opls_700-32    C    0.67975999    0.38522992    0.25000000    -0.06310000
opls_231-33    C    0.71839001    0.37190988    0.25000000    0.20610000
opls_145-34    C    0.79446988    0.67964000    0.25000000    -0.07810000
opls_145-35    C    0.78148988    0.62780985    0.25000000    -0.07810000
opls_700-36    C    0.82036005    0.61484995    0.25000000    -0.04050000
opls_235-37    C    0.85927017    0.77032007    0.25000000    0.39130000
opls_142-38    C    0.97364980    0.89618977    0.25000000    -0.01730000
opls_700-39    C    0.98690002    0.94809979    0.25000000    -0.06310000
opls_145-40    C    0.65368989    0.78149992    0.75000000    -0.07810000
opls_145-41    C    0.70551989    0.82034984    0.75000000    -0.07810000
opls_700-42    C    0.71848987    0.87217999    0.75000000    -0.04050000
opls_235-43    C    0.56300997    0.75562006    0.75000000    0.39130000
opls_142-44    C    0.43714985    0.74412981    0.75000000    -0.01740000
opls_700-45    C    0.38523003    0.70546976    0.75000000    -0.06310000
opls_231-46    C    0.37190978    0.65351980    0.75000000    0.20620000
opls_145-47    C    0.67963992    0.88517002    0.75000000    -0.07810000
opls_145-48    C    0.62780993    0.84632009    0.75000000    -0.07810000
opls_700-49    C    0.61484995    0.79448995    0.75000000    -0.04050000
opls_235-50    C    0.77031984    0.91104988    0.75000000    0.39130000
opls_142-51    C    0.89618979    0.92253978    0.75000000    -0.01740000
opls_700-52    C    0.94809991    0.96119982    0.75000000    -0.06310000
opls_231-53    C    0.96142003    0.01315013    0.75000000    0.20640000
opls_145-54    C    0.21849993    0.87218980    0.75000000    -0.07810000
opls_145-55    C    0.17964994    0.88517002    0.75000000    -0.07810000
opls_700-56    C    0.12782002    0.84630993    0.75000000    -0.04050000
opls_235-57    C    0.24438004    0.80738994    0.75000000    0.39130000
opls_142-58    C    0.25587011    0.69301995    0.75000000    -0.01740000
opls_700-59    C    0.29452978    0.67975981    0.75000000    -0.06310000
opls_231-60    C    0.34647993    0.71839008    0.75000000    0.20620000
opls_145-61    C    0.11482995    0.79446998    0.75000000    -0.07810000
opls_145-62    C    0.15367995    0.78148976    0.75000000    -0.07810000
opls_700-63    C    0.20551010    0.82036000    0.75000000    -0.04050000
opls_235-64    C    0.08894984    0.85926983    0.75000000    0.39130000
opls_142-65    C    0.07746001    0.97364999    0.75000000    -0.01730000
opls_700-66    C    0.03880010    0.98689997    0.75000000    -0.06310000
opls_145-67    C    0.12781000    0.34630993    0.75000000    -0.07810000
opls_145-68    C    0.11483018    0.29448014    0.75000000    -0.07810000
opls_700-69    C    0.15369011    0.28151008    0.75000000    -0.04050000
opls_235-70    C    0.19260999    0.43699000    0.75000000    0.39130000
opls_142-71    C    0.30697986    0.56284990    0.75000000    -0.01740000
opls_700-72    C    0.32024001    0.61477008    0.75000000    -0.06310000
opls_231-73    C    0.28160981    0.62808977    0.75000000    0.20620000
opls_145-74    C    0.20553012    0.32036000    0.75000000    -0.07810000
opls_145-75    C    0.21850995    0.37218980    0.75000000    -0.07810000
opls_700-76    C    0.17963995    0.38515005    0.75000000    -0.04050000
opls_235-77    C    0.14072983    0.22967993    0.75000000    0.39130000
opls_142-78    C    0.02635003    0.10380988    0.75000000    -0.01730000
opls_700-79    C    0.01309981    0.05189986    0.75000000    -0.06310000
opls_231-80    C    0.01314987    0.05172995    0.25000000    0.20640000
opls_231-81    C    0.94826999    0.96141983    0.25000000    0.20640000
opls_231-82    C    0.98685013    0.94827005    0.75000000    0.20640000
opls_231-83    C    0.05173001    0.03858017    0.75000000    0.20640000
opls_236-84    O    0.44978994    0.29522004    0.25000000    -0.30820000
opls_272-85    O    0.59030002    0.35966011    0.25000000    -0.25130000
opls_236-86    O    0.21687995    0.03811002    0.25000000    -0.30810000
opls_272-87    O    0.07635991    0.97367977    0.25000000    -0.25150000
opls_236-88    O    0.70478020    0.15457011    0.25000000    -0.30820000
opls_272-89    O    0.64033995    0.23063985    0.25000000    -0.25130000
opls_236-90    O    0.96188991    0.17877012    0.25000000    -0.30820000
opls_236-91    O    0.84542986    0.55020985    0.25000000    -0.30810000
opls_272-92    O    0.76936003    0.40970004    0.25000000    -0.25140000
opls_236-93    O    0.82122983    0.78311986    0.25000000    -0.30810000
opls_236-94    O    0.55021006    0.70477996    0.75000000    -0.30810000
opls_272-95    O    0.40969998    0.64033989    0.75000000    -0.25130000
opls_236-96    O    0.78312005    0.96188998    0.75000000    -0.30810000
opls_272-97    O    0.92363992    0.02631988    0.75000000    -0.25150000
opls_236-98    O    0.29521980    0.84542989    0.75000000    -0.30820000
opls_272-99    O    0.35965988    0.76935980    0.75000000    -0.25140000
opls_236-100    O    0.03811009    0.82122988    0.75000000    -0.30820000
opls_236-101    O    0.15456996    0.44978980    0.75000000    -0.30820000
opls_272-102    O    0.23063997    0.59029996    0.75000000    -0.25130000
opls_236-103    O    0.17877017    0.21688014    0.75000000    -0.30820000
opls_272-104    O    0.02632000    0.10268005    0.25000000    -0.25150000
opls_272-105    O    0.89731991    0.92363983    0.25000000    -0.25150000
opls_272-106    O    0.97368000    0.89731995    0.75000000    -0.25160000
opls_272-107    O    0.10267991    0.07635982    0.75000000    -0.25150000
opls_238-108    N    0.19163007    0.10174011    0.25000000    -0.20720000
opls_238-109    N    0.52489000    0.26878000    0.25000000    -0.12360000
opls_238-110    N    0.47504012    0.23158996    0.25000000    -0.20720000
opls_238-111    N    0.14177989    0.06455007    0.25000000    -0.12360000
opls_238-112    N    0.89825996    0.08989007    0.25000000    -0.20730000
opls_238-113    N    0.73121996    0.25610982    0.25000000    -0.12370000
opls_238-114    N    0.76840998    0.24344981    0.25000000    -0.20720000
opls_238-115    N    0.93544998    0.07723005    0.25000000    -0.12360000
opls_238-116    N    0.91010997    0.80836983    0.25000000    -0.20720000
opls_238-117    N    0.74388987    0.47510983    0.25000000    -0.12360000
opls_238-118    N    0.75655003    0.52495989    0.25000000    -0.20720000
opls_238-119    N    0.92276983    0.85821988    0.25000000    -0.12360000
opls_238-120    N    0.80836993    0.89825989    0.75000000    -0.20720000
opls_238-121    N    0.47511000    0.73122000    0.75000000    -0.12360000
opls_238-122    N    0.52495988    0.76841004    0.75000000    -0.20720000
opls_238-123    N    0.85822011    0.93544993    0.75000000    -0.12360000
opls_238-124    N    0.10174004    0.91010993    0.75000000    -0.20730000
opls_238-125    N    0.26877986    0.74388983    0.75000000    -0.12360000
opls_238-126    N    0.23158985    0.75654984    0.75000000    -0.20720000
opls_238-127    N    0.06455002    0.92276995    0.75000000    -0.12360000
opls_238-128    N    0.08988985    0.19162982    0.75000000    -0.20720000
opls_238-129    N    0.25610996    0.52488982    0.75000000    -0.12360000
opls_238-130    N    0.24344997    0.47504011    0.75000000    -0.20720000
opls_238-131    N    0.07723017    0.14178012    0.75000000    -0.12360000
opls_146-132    H    0.35591990    0.25687986    0.25000000    0.04620000
opls_910-133    H    0.20102998    0.13912003    0.25000000    0.22520000
opls_910-134    H    0.53438993    0.30619005    0.25000000    0.22520000
opls_144-135    H    0.55310006    0.21745013    0.25000000    0.02730000
opls_146-136    H    0.31073979    0.07644986    0.25000000    0.04620000
opls_910-137    H    0.46563991    0.19421003    0.25000000    0.22500000
opls_910-138    H    0.13227996    0.02714001    0.25000000    0.22510000
opls_144-139    H    0.11356011    0.11587993    0.25000000    0.02730000
opls_146-140    H    0.26571000    0.18925981    0.25000000    0.04620000
opls_146-141    H    0.40096001    0.14406990    0.25000000    0.04620000
opls_146-142    H    0.74312016    0.09904009    0.25000000    0.04620000
opls_910-143    H    0.86088004    0.06190995    0.25000000    0.22510000
opls_910-144    H    0.69381001    0.22820012    0.25000000    0.22520000
opls_144-145    H    0.78255011    0.33564997    0.25000000    0.02730000
opls_146-146    H    0.92355003    0.23428998    0.25000000    0.04620000
opls_910-147    H    0.80578990    0.27142992    0.25000000    0.22520000
opls_910-148    H    0.97286010    0.10514010    0.25000000    0.22510000
opls_146-149    H    0.81073979    0.07644986    0.25000000    0.04620000
opls_146-150    H    0.85593014    0.25689002    0.25000000    0.04620000
opls_146-151    H    0.90095993    0.64408006    0.25000000    0.04620000
opls_910-152    H    0.93808998    0.79897002    0.25000000    0.22520000
opls_910-153    H    0.77180006    0.46560983    0.25000000    0.22520000
opls_144-154    H    0.66434983    0.44689990    0.25000000    0.02730000
opls_146-155    H    0.76571000    0.68925981    0.25000000    0.04620000
opls_910-156    H    0.72856989    0.53436005    0.25000000    0.22520000
opls_910-157    H    0.89485994    0.86771989    0.25000000    0.22510000
opls_146-158    H    0.92355003    0.73428998    0.25000000    0.04620000
opls_146-159    H    0.74311015    0.59904009    0.25000000    0.04620000
opls_146-160    H    0.64407992    0.74311979    0.75000000    0.04620000
opls_910-161    H    0.79897002    0.86087997    0.75000000    0.22520000
opls_910-162    H    0.46561007    0.69380995    0.75000000    0.22510000
opls_144-163    H    0.44689994    0.78254987    0.75000000    0.02730000
opls_146-164    H    0.68926003    0.92354979    0.75000000    0.04620000
opls_910-165    H    0.53436009    0.80578997    0.75000000    0.22520000
opls_910-166    H    0.86772004    0.97285999    0.75000000    0.22520000
opls_144-167    H    0.88643989    0.88412007    0.75000000    0.02730000
opls_146-168    H    0.73428982    0.81073984    0.75000000    0.04620000
opls_146-169    H    0.59903981    0.85592975    0.75000000    0.04620000
opls_146-170    H    0.25687984    0.90095991    0.75000000    0.04620000
opls_910-171    H    0.13911996    0.93809005    0.75000000    0.22510000
opls_910-172    H    0.30618999    0.77179988    0.75000000    0.22520000
opls_144-173    H    0.21744989    0.66435003    0.75000000    0.02730000
opls_146-174    H    0.07644997    0.76571002    0.75000000    0.04620000
opls_910-175    H    0.19421010    0.72857008    0.75000000    0.22510000
opls_910-176    H    0.02713990    0.89485990    0.75000000    0.22520000
opls_146-177    H    0.18926003    0.92354979    0.75000000    0.04620000
opls_146-178    H    0.14406986    0.74310998    0.75000000    0.04620000
opls_146-179    H    0.09904007    0.35591994    0.75000000    0.04620000
opls_910-180    H    0.06191002    0.20102998    0.75000000    0.22510000
opls_910-181    H    0.22819977    0.53438982    0.75000000    0.22520000
opls_144-182    H    0.33565017    0.55310010    0.75000000    0.02730000
opls_146-183    H    0.23428982    0.31073984    0.75000000    0.04620000
opls_910-184    H    0.27143011    0.46563995    0.75000000    0.22510000
opls_910-185    H    0.10514006    0.13228011    0.75000000    0.22520000
opls_146-186    H    0.07644997    0.26571002    0.75000000    0.04620000
opls_146-187    H    0.25688985    0.40095991    0.75000000    0.04620000
opls_144-188    H    0.88412008    0.99768009    0.25000000    0.02730000
opls_144-189    H    0.00232011    0.88643998    0.25000000    0.02730000
opls_144-190    H    0.11587992    0.00231991    0.75000000    0.02730000
opls_144-191    H    0.99767989    0.11356002    0.75000000    0.02730000
