#======================================================================
# Crystal Data Generated By AuToFF
#----------------------------------------------------------------------

data_AuToFF_phase_1

_cell_length_a                         22.5060
_cell_length_b                         22.5060
_cell_length_c                         3.5000
_cell_angle_alpha                      90.00
_cell_angle_beta                       90.00
_cell_angle_gamma                      120.00
_symmetry_space_group_name_H-M_alt     'P 1'
_symmetry_space_group_IT_number        1

loop_
_space_group_symop_operation_xyz
   'x, y, z'

loop_
   _atom_site_label
   _atom_site_type_symbol
   _atom_site_fract_x
   _atom_site_fract_y
   _atom_site_fract_z
   _atom_site_charge
opls_702-0    H    0.41047982    0.08454002    0.25720000    0.18080000
opls_702-1    H    0.91545996    0.32593992    0.25720000    0.18080000
opls_702-2    H    0.67406022    0.58952007    0.25720000    0.18080000
opls_702-3    H    0.58952018    0.91545998    0.25720000    0.18080000
opls_702-4    H    0.08454004    0.67406008    0.25720000    0.18080000
opls_702-5    H    0.32593978    0.41047993    0.25720000    0.18080000
opls_702-6    H    0.58952018    0.91545998    0.74280000    0.18080000
opls_702-7    H    0.08454004    0.67406008    0.74280000    0.18080000
opls_702-8    H    0.32593978    0.41047993    0.74280000    0.18080000
opls_702-9    H    0.41047982    0.08454002    0.74280000    0.18080000
opls_702-10    H    0.91545996    0.32593992    0.74280000    0.18080000
opls_702-11    H    0.67406022    0.58952007    0.74280000    0.18080000
opls_146-12    H    0.62629009    0.07942990    0.00000000    0.12550000
opls_146-13    H    0.92056981    0.54685987    0.00000000    0.12550000
opls_146-14    H    0.45313985    0.37370971    0.00000000    0.12550000
opls_146-15    H    0.37370991    0.92057010    0.00000000    0.12550000
opls_146-16    H    0.07943019    0.45314013    0.00000000    0.12550000
opls_146-17    H    0.54685990    0.62628978    0.00000000    0.12550000
opls_144-18    H    0.65699020    0.17217021    0.00000000    0.06580000
opls_144-19    H    0.82782976    0.48481974    0.00000000    0.06580000
opls_144-20    H    0.51518005    0.34301005    0.00000000    0.06580000
opls_144-21    H    0.34300980    0.82782979    0.00000000    0.06580000
opls_144-22    H    0.17216999    0.51517975    0.00000000    0.06580000
opls_144-23    H    0.48481995    0.65698995    0.00000000    0.06580000
opls_910-24    H    0.51897006    0.16158982    0.00000000    0.26950000
opls_910-25    H    0.83841004    0.35737993    0.00000000    0.26950000
opls_910-26    H    0.64262009    0.48102974    0.00000000    0.26950000
opls_910-27    H    0.48102968    0.83840967    0.00000000    0.26950000
opls_910-28    H    0.16158996    0.64262007    0.00000000    0.26950000
opls_910-29    H    0.35737966    0.51896975    0.00000000    0.26950000
opls_702-30    H    0.35038005    0.00961019    0.00000000    0.10720000
opls_702-31    H    0.99038990    0.34077002    0.00000000    0.10720000
opls_702-32    H    0.65923005    0.64961979    0.00000000    0.10720000
opls_702-33    H    0.64961995    0.99038981    0.00000000    0.10720000
opls_702-34    H    0.00961010    0.65922998    0.00000000    0.10720000
opls_702-35    H    0.34076995    0.35038021    0.00000000    0.10720000
opls_281-36    O    0.75766987    0.28473991    0.00000000    -0.45480000
opls_281-37    O    0.71525999    0.47293001    0.00000000    -0.45480000
opls_281-38    O    0.52707014    0.24233009    0.00000000    -0.45480000
opls_281-39    O    0.24233013    0.71526009    0.00000000    -0.45480000
opls_281-40    O    0.28474001    0.52706999    0.00000000    -0.45470000
opls_281-41    O    0.47292986    0.75766991    0.00000000    -0.45480000
opls_238-42    N    0.55288003    0.14094979    0.00000000    -0.20880000
opls_238-43    N    0.85904988    0.41192985    0.00000000    -0.20880000
opls_238-44    N    0.58806983    0.44711984    0.00000000    -0.20880000
opls_238-45    N    0.44711971    0.85904969    0.00000000    -0.20880000
opls_238-46    N    0.14095012    0.58807015    0.00000000    -0.20880000
opls_238-47    N    0.41193017    0.55288016    0.00000000    -0.20880000
opls_280-48    C    0.71611999    0.30749991    0.00000000    0.16560000
opls_280-49    C    0.69249986    0.40862008    0.00000000    0.16540000
opls_280-50    C    0.59138015    0.28388001    0.00000000    0.16540000
opls_280-51    C    0.28388001    0.69250009    0.00000000    0.16540000
opls_280-52    C    0.30750014    0.59137992    0.00000000    0.16540000
opls_280-53    C    0.40861985    0.71611999    0.00000000    0.16540000
opls_700-54    C    0.64137991    0.25951001    0.00000000    -0.17640000
opls_700-55    C    0.74048978    0.38186998    0.00000000    -0.17650000
opls_700-56    C    0.61812987    0.35862000    0.00000000    -0.17650000
opls_700-57    C    0.35862009    0.74048999    0.00000000    -0.17650000
opls_700-58    C    0.25951022    0.61813002    0.00000000    -0.17640000
opls_700-59    C    0.38187013    0.64138000    0.00000000    -0.17650000
opls_142-60    C    0.61888985    0.18978983    0.00000000    0.09240000
opls_142-61    C    0.81020984    0.42910003    0.00000000    0.09240000
opls_142-62    C    0.57089986    0.38111014    0.00000000    0.09240000
opls_142-63    C    0.38110989    0.81020965    0.00000000    0.09240000
opls_142-64    C    0.18979016    0.57089997    0.00000000    0.09240000
opls_142-65    C    0.42910014    0.61888986    0.00000000    0.09240000
opls_916-66    C    0.52653018    0.07196022    0.00000000    0.19090000
opls_916-67    C    0.92803993    0.45457003    0.00000000    0.19090000
opls_916-68    C    0.54542989    0.47346975    0.00000000    0.19100000
opls_916-69    C    0.47346982    0.92803978    0.00000000    0.19090000
opls_916-70    C    0.07196007    0.54542997    0.00000000    0.19090000
opls_916-71    C    0.45456985    0.52652974    0.00000000    0.19090000
opls_145-72    C    0.57019989    0.04387974    0.00000000    -0.20000000
opls_145-73    C    0.95612005    0.52631989    0.00000000    -0.20000000
opls_145-74    C    0.47367981    0.42979985    0.00000000    -0.20000000
opls_145-75    C    0.42979985    0.95611974    0.00000000    -0.20000000
opls_145-76    C    0.04387995    0.47368011    0.00000000    -0.20000000
opls_145-77    C    0.52632019    0.57020015    0.00000000    -0.20000000
opls_700-78    C    0.45437985    0.02665005    0.00000000    0.08510000
opls_700-79    C    0.97335010    0.42773015    0.00000000    0.08510000
opls_700-80    C    0.57227004    0.54561980    0.00000000    0.08510000
opls_700-81    C    0.54562015    0.97334995    0.00000000    0.08510000
opls_700-82    C    0.02664990    0.57226985    0.00000000    0.08510000
opls_700-83    C    0.42772996    0.45438020    0.00000000    0.08510000
opls_148-84    C    0.40463993    0.05334012    0.00000000    -0.42340000
opls_148-85    C    0.94666002    0.35130013    0.00000000    -0.42340000
opls_148-86    C    0.64870005    0.59535975    0.00000000    -0.42340000
opls_148-87    C    0.59536007    0.94665988    0.00000000    -0.42340000
opls_148-88    C    0.05333998    0.64869987    0.00000000    -0.42340000
opls_148-89    C    0.35129969    0.40463973    0.00000000    -0.42340000
